LAMMPS (29 Oct 2020)
#-------------------------
#
#This script is used to create different concentrations of vacancies in thorium dioxide
#By Ziqiang Wang on 07/03/2023
#
#-------------------------

clear
units                        metal
dimension                        3
boundary                     p p p
atom_style                   full
atom_modify                  map array

read_data                   perfect_relaxed.dat
Reading data file ...
  orthogonal box = (-0.27717828 -3.4472206 -0.27717828) to (27.617178 331.52722 27.617178)
  reading atoms ...
  18000 atoms
  reading velocities ...
  18000 velocities
Finding 1-2 1-3 1-4 neighbors ...
     0 = max # of 1-2 neighbors
     0 = max # of 1-3 neighbors
     0 = max # of 1-4 neighbors
     1 = max # of special neighbors

# randomly create vacancies in the relaxed perfect crystal
variable         n               equal    6
variable         vac_ratio       equal    0.02
region           sphere    sphere     13.67 30.0502 13.67 5.0  units box
group            sphere     region  sphere
45 atoms in group sphere
group            oxygen     id 7591 11131 11189 7592 7595 11135 11193 7596
8 atoms in group oxygen
group            thorium    id 11188
1 atoms in group thorium
group            1          union thorium oxygen
9 atoms in group 1
group            cluster          subtract    sphere 1
36 atoms in group cluster
group            Th       type     2
6000 atoms in group Th
group            O        type     1
12000 atoms in group O
group            Th_group   intersect  cluster   Th
12 atoms in group Th_group
group            O_group    intersect  cluster   O
24 atoms in group O_group

set              group      Th_group   type/subset   3  $n  2253
set              group      Th_group   type/subset   3  6  2253
Setting atom values ...
  6 settings made for type/subset
group            Xe         type       3
6 atoms in group Xe
group            delete     subtract   cluster   Xe
30 atoms in group delete
delete_atoms     group      delete
Deleted 30 atoms, new total = 17970
group            Xe         delete
group            delete     delete
region           sphere     delete
group            sphere     delete
group            oxygen     delete
group            thorium    delete
group            1          delete
group            cluster    delete
group            Th         delete
group            O          delete
group            Th_group   delete
group            O_group    delete

region           sphere    sphere     13.67 57.9648 13.67 5.0  units box
group            sphere     region  sphere
45 atoms in group sphere
group            oxygen     id 7891 11431 11489 7892 7895 11435 11493 7896
8 atoms in group oxygen
group            thorium    id 11488
1 atoms in group thorium
group            1          union thorium oxygen
9 atoms in group 1
group            cluster          subtract    sphere 1
36 atoms in group cluster
group            Th       type     2
5988 atoms in group Th
group            O        type     1
11976 atoms in group O
group            Th_group   intersect  cluster   Th
12 atoms in group Th_group
group            O_group    intersect  cluster   O
24 atoms in group O_group

set              group      Th_group   type/subset   3  $n  2253
set              group      Th_group   type/subset   3  6  2253
Setting atom values ...
  6 settings made for type/subset
group            Xe         type       3
12 atoms in group Xe
group            delete     subtract   cluster   Xe
30 atoms in group delete
delete_atoms     group      delete
Deleted 30 atoms, new total = 17940
group            Xe         delete
group            delete     delete
region           sphere     delete
group            sphere     delete
group            oxygen     delete
group            thorium    delete
group            1          delete
group            cluster    delete
group            Th         delete
group            O          delete
group            Th_group   delete
group            O_group    delete

region           sphere    sphere     13.67 85.8793 13.67 5.0  units box
group            sphere     region  sphere
45 atoms in group sphere
group            oxygen     id 8191 11789 11731 8192 8195 11793 11735 8196
8 atoms in group oxygen
group            thorium    id 11788
1 atoms in group thorium
group            1          union thorium oxygen
9 atoms in group 1
group            cluster          subtract    sphere 1
36 atoms in group cluster
group            Th       type     2
5976 atoms in group Th
group            O        type     1
11952 atoms in group O
group            Th_group   intersect  cluster   Th
12 atoms in group Th_group
group            O_group    intersect  cluster   O
24 atoms in group O_group

set              group      Th_group   type/subset   3  $n  2253
set              group      Th_group   type/subset   3  6  2253
Setting atom values ...
  6 settings made for type/subset
group            Xe         type       3
18 atoms in group Xe
group            delete     subtract   cluster   Xe
30 atoms in group delete
delete_atoms     group      delete
Deleted 30 atoms, new total = 17910
group            Xe         delete
group            delete     delete
region           sphere     delete
group            sphere     delete
group            oxygen     delete
group            thorium    delete
group            1          delete
group            cluster    delete
group            Th         delete
group            O          delete
group            Th_group   delete
group            O_group    delete

region           sphere    sphere     13.67 113.794 13.67 5.0  units box
group            sphere     region  sphere
45 atoms in group sphere
group            oxygen     id 8491 12089 12031 8492 8495 12093 12035 8496
8 atoms in group oxygen
group            thorium    id 12088
1 atoms in group thorium
group            1          union thorium oxygen
9 atoms in group 1
group            cluster          subtract    sphere 1
36 atoms in group cluster
group            Th       type     2
5964 atoms in group Th
group            O        type     1
11928 atoms in group O
group            Th_group   intersect  cluster   Th
12 atoms in group Th_group
group            O_group    intersect  cluster   O
24 atoms in group O_group

set              group      Th_group   type/subset   3  $n  2253
set              group      Th_group   type/subset   3  6  2253
Setting atom values ...
  6 settings made for type/subset
group            Xe         type       3
24 atoms in group Xe
group            delete     subtract   cluster   Xe
30 atoms in group delete
delete_atoms     group      delete
Deleted 30 atoms, new total = 17880
group            Xe         delete
group            delete     delete
region           sphere     delete
group            sphere     delete
group            oxygen     delete
group            thorium    delete
group            1          delete
group            cluster    delete
group            Th         delete
group            O          delete
group            Th_group   delete
group            O_group    delete
region           sphere    sphere     13.67 141.708 13.67 5.0  units box
group            sphere     region  sphere
45 atoms in group sphere
group            oxygen     id 8791 12331 12389 8792 8795 12335 12393 8796
8 atoms in group oxygen
group            thorium    id 12388
1 atoms in group thorium
group            1          union thorium oxygen
9 atoms in group 1
group            cluster          subtract sphere    1
36 atoms in group cluster
group            Th       type     2
5952 atoms in group Th
group            O        type     1
11904 atoms in group O
group            Th_group   intersect  cluster   Th
12 atoms in group Th_group
group            O_group    intersect  cluster   O
24 atoms in group O_group

set              group      Th_group   type/subset   3  $n  2253
set              group      Th_group   type/subset   3  6  2253
Setting atom values ...
  6 settings made for type/subset
group            Xe         type       3
30 atoms in group Xe
group            delete     subtract   cluster   Xe
30 atoms in group delete
delete_atoms     group      delete
Deleted 30 atoms, new total = 17850
group            Xe         delete
group            delete     delete
region           sphere     delete
group            sphere     delete
group            oxygen     delete
group            thorium    delete
group            1          delete
group            cluster    delete
group            Th         delete
group            O          delete
group            Th_group   delete
group            O_group    delete

region           sphere    sphere     13.67 197.537 13.67 5.0  units box
group            sphere     region  sphere
45 atoms in group sphere
group            oxygen     id 9391 12989 12931 9392 9395 12993 12935 9396
8 atoms in group oxygen
group            thorium    id 12988
1 atoms in group thorium
group            1          union thorium oxygen
9 atoms in group 1
group            cluster          subtract    sphere 1
36 atoms in group cluster
group            Th       type     2
5940 atoms in group Th
group            O        type     1
11880 atoms in group O
group            Th_group   intersect  cluster   Th
12 atoms in group Th_group
group            O_group    intersect  cluster   O
24 atoms in group O_group

set              group      Th_group   type/subset   3  $n  2253
set              group      Th_group   type/subset   3  6  2253
Setting atom values ...
  6 settings made for type/subset
group            Xe         type       3
36 atoms in group Xe
group            delete     subtract   cluster   Xe
30 atoms in group delete
delete_atoms     group      delete
Deleted 30 atoms, new total = 17820
group            Xe         delete
group            delete     delete
region           sphere     delete
group            sphere     delete
group            oxygen     delete
group            thorium    delete
group            1          delete
group            cluster    delete
group            Th         delete
group            O          delete
group            Th_group   delete
group            O_group    delete

region           sphere    sphere     13.67 225.452 13.67 5.0  units box
group            sphere     region  sphere
45 atoms in group sphere
group            oxygen     id 13289 13231 9691 9692 13293 13235 9695 9696
8 atoms in group oxygen
group            thorium    id 13288
1 atoms in group thorium
group            1          union thorium oxygen
9 atoms in group 1
group            cluster    subtract     sphere 1
36 atoms in group cluster
group            Th       type     2
5928 atoms in group Th
group            O        type     1
11856 atoms in group O
group            Th_group   intersect  cluster   Th
12 atoms in group Th_group
group            O_group    intersect  cluster   O
24 atoms in group O_group

set              group      Th_group   type/subset   3  $n  2253
set              group      Th_group   type/subset   3  6  2253
Setting atom values ...
  6 settings made for type/subset
group            Xe         type       3
42 atoms in group Xe
group            delete     subtract   cluster   Xe
30 atoms in group delete
delete_atoms     group      delete
Deleted 30 atoms, new total = 17790
group            Xe         delete
group            delete     delete
region           sphere     delete
group            sphere     delete
group            oxygen     delete
group            thorium    delete
group            1          delete
group            cluster    delete
group            Th         delete
group            O          delete
group            Th_group   delete
group            O_group    delete

region           sphere    sphere     13.67 253.367 13.67 5.0  units box
group            sphere     region  sphere
45 atoms in group sphere
group            oxygen     id 13531 9991 13589 9992 13535 9995 13593 9996
8 atoms in group oxygen
group            thorium    id 13588
1 atoms in group thorium
group            1          union thorium oxygen
9 atoms in group 1
group            cluster    subtract      sphere    1
36 atoms in group cluster
group            Th       type     2
5916 atoms in group Th
group            O        type     1
11832 atoms in group O
group            Th_group   intersect  cluster   Th
12 atoms in group Th_group
group            O_group    intersect  cluster   O
24 atoms in group O_group

set              group      Th_group   type/subset   3  $n  2253
set              group      Th_group   type/subset   3  6  2253
Setting atom values ...
  6 settings made for type/subset
group            Xe         type       3
48 atoms in group Xe
group            delete     subtract   cluster   Xe
30 atoms in group delete
delete_atoms     group      delete
Deleted 30 atoms, new total = 17760
group            Xe         delete
group            delete     delete
region           sphere     delete
group            sphere     delete
group            oxygen     delete
group            thorium    delete
group            1          delete
group            cluster    delete
group            Th         delete
group            O          delete
group            Th_group   delete
group            O_group    delete

region           sphere    sphere     13.67 281.281 13.67 5.0  units box
group            sphere     region  sphere
45 atoms in group sphere
group            oxygen     id 13831 10291 13889 10292 13835 10295 13893 10296
8 atoms in group oxygen
group            thorium    id 13888
1 atoms in group thorium
group            1          union thorium oxygen
9 atoms in group 1
group            cluster    subtract      sphere    1
36 atoms in group cluster
group            Th       type     2
5904 atoms in group Th
group            O        type     1
11808 atoms in group O
group            Th_group   intersect  cluster   Th
12 atoms in group Th_group
group            O_group    intersect  cluster   O
24 atoms in group O_group

set              group      Th_group   type/subset   3  $n  2253
set              group      Th_group   type/subset   3  6  2253
Setting atom values ...
  6 settings made for type/subset
group            Xe         type       3
54 atoms in group Xe
group            delete     subtract   cluster   Xe
30 atoms in group delete
delete_atoms     group      delete
Deleted 30 atoms, new total = 17730
group            Xe         delete
group            delete     delete
region           sphere     delete
group            sphere     delete
group            oxygen     delete
group            thorium    delete
group            1          delete
group            cluster    delete
group            Th         delete
group            O          delete
group            Th_group   delete
group            O_group    delete

region           sphere    sphere     13.67 303.613 13.67 5.0  units box
group            sphere     region  sphere
45 atoms in group sphere
group            oxygen     id 14129 14071 10531 10532 14133 14075 10535 10536
8 atoms in group oxygen
group            thorium    id 14128
1 atoms in group thorium
group            1          union thorium oxygen
9 atoms in group 1
group            cluster    subtract      sphere    1
36 atoms in group cluster
group            Th       type     2
5892 atoms in group Th
group            O        type     1
11784 atoms in group O
group            Th_group   intersect  cluster   Th
12 atoms in group Th_group
group            O_group    intersect  cluster   O
24 atoms in group O_group

set              group      Th_group   type/subset   3  $n  2253
set              group      Th_group   type/subset   3  6  2253
Setting atom values ...
  6 settings made for type/subset
group            Xe         type       3
60 atoms in group Xe
group            delete     subtract   cluster   Xe
30 atoms in group delete
delete_atoms     group      delete
Deleted 30 atoms, new total = 17700
group            Xe         delete
group            delete     delete
region           sphere     delete
group            sphere     delete
group            oxygen     delete
group            thorium    delete
group            1          delete
group            cluster    delete
group            Th         delete
group            O          delete
group            Th_group   delete
group            O_group    delete

set                         type    1      charge   -1.1104
Setting atom values ...
  11760 settings made for charge
set                         type    2      charge    2.2208
Setting atom values ...
  5880 settings made for charge
set                         type    3      charge    0.0
Setting atom values ...
  60 settings made for charge
kspace_style                pppm     1.0e-05
pair_style                  hybrid/overlay  coul/long   11.0  eam/alloy  table  linear  1000  pppm
pair_coeff                  * * coul/long
pair_coeff                  * * eam/alloy CeThUNpPuAmCmO.eam.alloy O Th NULL
pair_coeff                  3 3 table CRG_gas_potentials.lmptab Xe-Xe 11
  Should only be flagged at inflection points (../pair_table.cpp:461)
pair_coeff                  1 3 table CRG_gas_potentials.lmptab Xe-O 11
  Should only be flagged at inflection points (../pair_table.cpp:461)
pair_coeff                  2 3 table CRG_gas_potentials.lmptab Xe-Th 11
  Should only be flagged at inflection points (../pair_table.cpp:461)
neighbor                    2.0  bin
neigh_modify                every  1  delay  0  check  yes

# fully relaxing the defect configuration at 0K
fix                box_relax  all  box/relax aniso 0.0 vmax 0.001
min_style          cg
minimize           1.0e-30 1.0e-30 10000 10000
PPPM initialization ...
  G vector (1/distance) = 0.29911702
  grid = 40 240 40
  stencil order = 5
  estimated absolute RMS force accuracy = 0.00015352568
  estimated relative force accuracy = 1.0661769e-05
  3d grid and FFT values/proc = 18225 7600
  update every 1 steps, delay 0 steps, check yes
Step Temp E_pair E_mol TotEng Press Volume
0            0   -231184.61            0   -231184.61    1284.6431    260641.98
Loop time of 4.04509 on 52 procs for 203 steps with 17700 atoms

Minimization stats:
  Stopping criterion = linesearch alpha is zero
  Energy initial, next-to-last, final =
  Force two-norm initial, final = 492.57130 14.548715
  Force max component initial, final = 402.34122 9.0027976
  Final line search alpha, max atom move = 5.3008239e-11 4.7722244e-10
  Iterations, force evaluations = 203 363

unfix              box_relax

# apply the temperature into the system and relaxing at the temperature of interest
reset_atom_ids
PPPM initialization ...
  G vector (1/distance) = 0.29908346
  grid = 40 240 40
  stencil order = 5
  estimated absolute RMS force accuracy = 0.00015376114
  estimated relative force accuracy = 1.067812e-05
  3d grid and FFT values/proc = 18225 7600
  update every 1 steps, delay 0 steps, check yes
Finding 1-2 1-3 1-4 neighbors ...
     0 = max # of 1-2 neighbors
     0 = max # of 1-3 neighbors
     0 = max # of 1-4 neighbors
     1 = max # of special neighbors
variable                    temp      equal    600
velocity                    all  create   600  4542  dist  gaussian  rot  yes  mom  yes
fix                         npt  all  npt  temp  600  600  $(100*dt) aniso  0.0  0.0  $(1000*dt)
fix                         npt  all  npt  temp  600  600  0.10000000000000000555 aniso  0.0  0.0  $(1000*dt)
fix                         npt  all  npt  temp  600  600  0.10000000000000000555 aniso  0.0  0.0  1

thermo                      10000
thermo_style                custom   step dt time atoms temp pe ke press vol

shell                       mkdir vac_0.02_600K
dump                        1  all  custom  10000  ./vac_0.02_600K/dump_relax.atom.* id type q x y z
dump_modify                 1  element  O  Th  Xe

run                         100000
PPPM initialization ...
  G vector (1/distance) = 0.29908346
  grid = 40 240 40
  stencil order = 5
  estimated absolute RMS force accuracy = 0.00015376114
  estimated relative force accuracy = 1.067812e-05
  3d grid and FFT values/proc = 18225 7600
  update every 1 steps, delay 0 steps, check yes
Step Dt Time Atoms Temp PotEng KinEng Press Volume
203        0.001            0    17700          600    -231624.8    1372.6652    5576.4127    261215.23
Averages over the last 6 of 12 rows, steps 60000 to 100203:
Dt Atoms Temp PotEng KinEng Press Volume
0.001 17700 600.154 -230334 1373.02 436.178 265224
Loop time of 835.678 on 52 procs for 100000 steps with 17700 atoms

shell                       mkdir thermal_condu
write_data                  thermal_condu/vac_0.02_relaxed.dat
System init for write_data ...
PPPM initialization ...
  G vector (1/distance) = 0.29880845
  grid = 40 240 40
  stencil order = 5
  estimated absolute RMS force accuracy = 0.00015595861
  estimated relative force accuracy = 1.0830726e-05
  3d grid and FFT values/proc = 18225 7600
  update every 1 steps, delay 0 steps, check yes
