LAMMPS (29 Oct 2020)
#-------------------------
#
#This script is used to create different concentrations of vacancies in thorium dioxide
#By Ziqiang Wang on 07/03/2023
#
#-------------------------

clear
units                        metal
dimension                        3
boundary                     p p p
atom_style                   full
atom_modify                  map array

read_data                   perfect_relaxed.dat
Reading data file ...
  orthogonal box = (-0.27717828 -3.4472206 -0.27717828) to (27.617178 331.52722 27.617178)
  reading atoms ...
  18000 atoms
  reading velocities ...
  18000 velocities
Finding 1-2 1-3 1-4 neighbors ...
     0 = max # of 1-2 neighbors
     0 = max # of 1-3 neighbors
     0 = max # of 1-4 neighbors
     1 = max # of special neighbors

# randomly create vacancies in the relaxed perfect crystal
variable         n               equal    10
variable         vac_ratio       equal    0.02
region           sphere    sphere     13.67 35.6331 13.67 6.5  units box
group            sphere     region  sphere
75 atoms in group sphere
group            oxygen     id 7643 4052 3990 4050 3992 7581 4042 3984 4056 7601 4062 4004 3994 4054 3996 7663
16 atoms in group oxygen
group            thorium    id 7705
1 atoms in group thorium
group            1          subtract sphere oxygen
59 atoms in group 1
group            cluster          union    1 thorium
60 atoms in group cluster
group            Th       type     2
6000 atoms in group Th
group            O        type     1
12000 atoms in group O
group            Th_group   intersect  cluster   Th
20 atoms in group Th_group
group            O_group    intersect  cluster   O
40 atoms in group O_group
set              group      Th_group     type/subset   3   $n   5224
set              group      Th_group     type/subset   3   10   5224
Setting atom values ...
  10 settings made for type/subset
group            Xe         type         3
10 atoms in group Xe
group            delete     subtract     cluster   Xe
50 atoms in group delete
delete_atoms     group      delete
Deleted 50 atoms, new total = 17950
group            Xe         delete
group            delete     delete
region           sphere     delete
group            sphere     delete
group            oxygen     delete
group            thorium    delete
group            1          delete
group            cluster    delete
group            Th         delete
group            O          delete
group            Th_group   delete
group            O_group    delete

region           sphere    sphere     13.67 91.4622 13.67 6.5  units box
group            sphere     region  sphere
75 atoms in group sphere
group            oxygen     id 8305
1 atoms in group oxygen
group            thorium    id 8243 4642 4652 4650 4590 4592 8181 4584 4656 4654 8201 4604 4594 4596 4662 8263
16 atoms in group thorium
group            1          subtract sphere thorium
59 atoms in group 1
group            cluster          union    1 oxygen
60 atoms in group cluster
group            Th       type     2
5980 atoms in group Th
group            O        type     1
11960 atoms in group O
group            Th_group   intersect  cluster   Th
20 atoms in group Th_group
group            O_group    intersect  cluster   O
40 atoms in group O_group
set              group      Th_group     type/subset   3   $n   5224
set              group      Th_group     type/subset   3   10   5224
Setting atom values ...
  10 settings made for type/subset
group            Xe         type         3
20 atoms in group Xe
group            delete     subtract     cluster   Xe
50 atoms in group delete
delete_atoms     group      delete
Deleted 50 atoms, new total = 17900
group            Xe         delete
group            delete     delete
region           sphere     delete
group            sphere     delete
group            oxygen     delete
group            thorium    delete
group            1          delete
group            cluster    delete
group            Th         delete
group            O          delete
group            Th_group   delete
group            O_group    delete

region           sphere    sphere     13.67 141.708 13.67 6.5  units box
group            sphere     region  sphere
75 atoms in group sphere
group            oxygen     id 8845
1 atoms in group oxygen
group            thorium    id 8783 5182 5192 5190 5130 5132 8721 5124 8803 5196 8741 5144 5134 5194 5136 5202
16 atoms in group thorium
group            1          subtract sphere thorium
59 atoms in group 1
group            cluster          union    1 oxygen
60 atoms in group cluster
group            Th       type     2
5960 atoms in group Th
group            O        type     1
11920 atoms in group O
group            Th_group   intersect  cluster   Th
20 atoms in group Th_group
group            O_group    intersect  cluster   O
40 atoms in group O_group
set              group      Th_group     type/subset   3   $n   5224
set              group      Th_group     type/subset   3   10   5224
Setting atom values ...
  10 settings made for type/subset
group            Xe         type         3
30 atoms in group Xe
group            delete     subtract     cluster   Xe
50 atoms in group delete
delete_atoms     group      delete
Deleted 50 atoms, new total = 17850
group            Xe         delete
group            delete     delete
region           sphere     delete
group            sphere     delete
group            oxygen     delete
group            thorium    delete
group            1          delete
group            cluster    delete
group            Th         delete
group            O          delete
group            Th_group   delete
group            O_group    delete

region           sphere    sphere     13.67 197.537 13.67 6.5  units box
group            sphere     region  sphere
75 atoms in group sphere
group            oxygen     id 9445
1 atoms in group oxygen
group            thorium    id 5724 9383 5782 5792 5732 5790 5730 9321 5796 5736 5794 9341 5744 5734 5802 9403
16 atoms in group thorium
group            1          subtract sphere thorium
59 atoms in group 1
group            cluster          union    1 oxygen
60 atoms in group cluster
group            Th       type     2
5940 atoms in group Th
group            O        type     1
11880 atoms in group O
group            Th_group   intersect  cluster   Th
20 atoms in group Th_group
group            O_group    intersect  cluster   O
40 atoms in group O_group
set              group      Th_group     type/subset   3   $n   5224
set              group      Th_group     type/subset   3   10   5224
Setting atom values ...
  10 settings made for type/subset
group            Xe         type         3
40 atoms in group Xe
group            delete     subtract     cluster   Xe
50 atoms in group delete
delete_atoms     group      delete
Deleted 50 atoms, new total = 17800
group            Xe         delete
group            delete     delete
region           sphere     delete
group            sphere     delete
group            oxygen     delete
group            thorium    delete
group            1          delete
group            cluster    delete
group            Th         delete
group            O          delete
group            Th_group   delete
group            O_group    delete

region           sphere    sphere     13.67 247.784 13.67 6.5  units box
group            sphere     region  sphere
75 atoms in group sphere
group            oxygen     id 9985
1 atoms in group oxygen
group            thorium    id 6264 9923 6322 6332 6272 6330 6270 9861 6336 6276 6334 9881 6274 6342 9943 6284
16 atoms in group thorium
group            1          subtract sphere thorium
59 atoms in group 1
group            cluster          union    1 oxygen
60 atoms in group cluster
group            Th       type     2
5920 atoms in group Th
group            O        type     1
11840 atoms in group O
group            Th_group   intersect  cluster   Th
20 atoms in group Th_group
group            O_group    intersect  cluster   O
40 atoms in group O_group
set              group      Th_group     type/subset   3   $n   5224
set              group      Th_group     type/subset   3   10   5224
Setting atom values ...
  10 settings made for type/subset
group            Xe         type         3
50 atoms in group Xe
group            delete     subtract     cluster   Xe
50 atoms in group delete
delete_atoms     group      delete
Deleted 50 atoms, new total = 17750
group            Xe         delete
group            delete     delete
region           sphere     delete
group            sphere     delete
group            oxygen     delete
group            thorium    delete
group            1          delete
group            cluster    delete
group            Th         delete
group            O          delete
group            Th_group   delete
group            O_group    delete

region           sphere    sphere     13.67 298.03 13.67 6.5  units box
group            sphere     region  sphere
75 atoms in group sphere
group            oxygen     id 10525
1 atoms in group oxygen
group            thorium    id 10463 6862 6872 6870 6810 6812 10401 6804 6876 6874 10421 6824 6814 6816 6882 10483
16 atoms in group thorium
group            1          subtract sphere thorium
59 atoms in group 1
group            cluster          union    1 oxygen
60 atoms in group cluster
group            Th       type     2
5900 atoms in group Th
group            O        type     1
11800 atoms in group O
group            Th_group   intersect  cluster   Th
20 atoms in group Th_group
group            O_group    intersect  cluster   O
40 atoms in group O_group
set              group      Th_group     type/subset   3   $n   5224
set              group      Th_group     type/subset   3   10   5224
Setting atom values ...
  10 settings made for type/subset
group            Xe         type         3
60 atoms in group Xe
group            delete     subtract     cluster   Xe
50 atoms in group delete
delete_atoms     group      delete
Deleted 50 atoms, new total = 17700
group            Xe         delete
group            delete     delete
region           sphere     delete
group            sphere     delete
group            oxygen     delete
group            thorium    delete
group            1          delete
group            cluster    delete
group            Th         delete
group            O          delete
group            Th_group   delete
group            O_group    delete

set                         type    1      charge   -1.1104
Setting atom values ...
  11760 settings made for charge
set                         type    2      charge    2.2208
Setting atom values ...
  5880 settings made for charge
set                         type    3      charge    0.0
Setting atom values ...
  60 settings made for charge
kspace_style                pppm     1.0e-05
pair_style                  hybrid/overlay  coul/long   11.0  eam/alloy  table  linear  1000  pppm
pair_coeff                  * * coul/long
pair_coeff                  * * eam/alloy CeThUNpPuAmCmO.eam.alloy O Th NULL
pair_coeff                  3 3 table CRG_gas_potentials.lmptab Xe-Xe 11
  Should only be flagged at inflection points (../pair_table.cpp:461)
pair_coeff                  1 3 table CRG_gas_potentials.lmptab Xe-O 11
  Should only be flagged at inflection points (../pair_table.cpp:461)
pair_coeff                  2 3 table CRG_gas_potentials.lmptab Xe-Th 11
  Should only be flagged at inflection points (../pair_table.cpp:461)
neighbor                    2.0  bin
neigh_modify                every  1  delay  0  check  yes

# fully relaxing the defect configuration at 0K
fix                box_relax  all  box/relax aniso 0.0 vmax 0.001
min_style          cg
minimize           1.0e-30 1.0e-30 10000 10000
PPPM initialization ...
  G vector (1/distance) = 0.29911702
  grid = 40 240 40
  stencil order = 5
  estimated absolute RMS force accuracy = 0.00015352568
  estimated relative force accuracy = 1.0661769e-05
  3d grid and FFT values/proc = 18225 7600
  update every 1 steps, delay 0 steps, check yes
Step Temp E_pair E_mol TotEng Press Volume
0            0    -230580.3            0    -230580.3    2323.3273    260641.98
Loop time of 8.35005 on 52 procs for 422 steps with 17700 atoms

Minimization stats:
  Stopping criterion = linesearch alpha is zero
  Energy initial, next-to-last, final =
  Force two-norm initial, final = 950.74660 27.354203
  Force max component initial, final = 753.30040 24.438980
  Final line search alpha, max atom move = 8.5952232e-12 2.1005848e-10
  Iterations, force evaluations = 422 754

unfix              box_relax

# apply the temperature into the system and relaxing at the temperature of interest
reset_atom_ids
PPPM initialization ...
  G vector (1/distance) = 0.29905479
  grid = 40 240 40
  stencil order = 5
  estimated absolute RMS force accuracy = 0.00015400986
  estimated relative force accuracy = 1.0695393e-05
  3d grid and FFT values/proc = 18225 7600
  update every 1 steps, delay 0 steps, check yes
Finding 1-2 1-3 1-4 neighbors ...
     0 = max # of 1-2 neighbors
     0 = max # of 1-3 neighbors
     0 = max # of 1-4 neighbors
     1 = max # of special neighbors
variable                    temp      equal    1200
velocity                    all  create   1200  4542  dist  gaussian  rot  yes  mom  yes
fix                         npt  all  npt  temp  1200  1200  $(100*dt) aniso  0.0  0.0  $(1000*dt)
fix                         npt  all  npt  temp  1200  1200  0.10000000000000000555 aniso  0.0  0.0  $(1000*dt)
fix                         npt  all  npt  temp  1200  1200  0.10000000000000000555 aniso  0.0  0.0  1

thermo                      10000
thermo_style                custom   step dt time atoms temp pe ke press vol

shell                       mkdir vac_0.02_1200K
dump                        1  all  custom  10000  ./vac_0.02_1200K/dump_relax.atom.* id type q x y z
dump_modify                 1  element  O  Th Xe

run                         100000
PPPM initialization ...
  G vector (1/distance) = 0.29905479
  grid = 40 240 40
  stencil order = 5
  estimated absolute RMS force accuracy = 0.00015400986
  estimated relative force accuracy = 1.0695393e-05
  3d grid and FFT values/proc = 18225 7600
  update every 1 steps, delay 0 steps, check yes
Step Dt Time Atoms Temp PotEng KinEng Press Volume
422        0.001            0    17700         1200   -231564.35    2745.3304    11270.424    261566.44
Averages over the last 6 of 12 rows, steps 60000 to 100422:
Dt Atoms Temp PotEng KinEng Press Volume
0.001 17700 1204.51 -228988 2755.66 751.219 269729
Loop time of 822.626 on 52 procs for 100000 steps with 17700 atoms

shell                       mkdir thermal_condu
write_data                  thermal_condu/vac_0.02_relaxed.dat
System init for write_data ...
PPPM initialization ...
  G vector (1/distance) = 0.29848581
  grid = 40 240 40
  stencil order = 5
  estimated absolute RMS force accuracy = 0.00015861572
  estimated relative force accuracy = 1.1015252e-05
  3d grid and FFT values/proc = 18225 7600
  update every 1 steps, delay 0 steps, check yes
