LAMMPS (29 Oct 2020)
#-------------------------
#
#This script is used to create different concentrations of vacancies in thorium dioxide
#By Ziqiang Wang on 07/03/2023
#
#-------------------------

clear
units                        metal
dimension                        3
boundary                     p p p
atom_style                   full
atom_modify                  map array

read_data                   perfect_relaxed.dat
Reading data file ...
  orthogonal box = (-0.27717828 -3.4472206 -0.27717828) to (27.617178 331.52722 27.617178)
  reading atoms ...
  18000 atoms
  reading velocities ...
  18000 velocities
Finding 1-2 1-3 1-4 neighbors ...
     0 = max # of 1-2 neighbors
     0 = max # of 1-3 neighbors
     0 = max # of 1-4 neighbors
     1 = max # of special neighbors

# randomly create vacancies in the relaxed perfect crystal
variable         n               equal    8
variable         vac_ratio       equal    0.02
region           sphere    sphere     13.67 30.0502 13.67 5.0  units box
group            sphere     region  sphere
45 atoms in group sphere
group            oxygen     id 7591 7592
2 atoms in group oxygen
group            thorium    id 7575 7599
2 atoms in group thorium
group            1          subtract sphere oxygen
43 atoms in group 1
group            cluster          union    1 thorium
45 atoms in group cluster
group            Th       type     2
6000 atoms in group Th
group            O        type     1
12000 atoms in group O
group            Th_group   intersect  cluster   Th
15 atoms in group Th_group
group            O_group    intersect  cluster   O
30 atoms in group O_group

set              group      Th_group   type/subset   3  $n  2253
set              group      Th_group   type/subset   3  8  2253
Setting atom values ...
  8 settings made for type/subset
group            Xe         type       3
8 atoms in group Xe
group            delete     subtract   cluster   Xe
37 atoms in group delete
delete_atoms     group      delete
Deleted 37 atoms, new total = 17963
group            Xe         delete
group            delete     delete
region           sphere     delete
group            sphere     delete
group            oxygen     delete
group            thorium    delete
group            1          delete
group            cluster    delete
group            Th         delete
group            O          delete
group            Th_group   delete
group            O_group    delete

region           sphere    sphere     13.67 69.1306 13.67 5.0  units box
group            sphere     region  sphere
45 atoms in group sphere
group            oxygen     id 8011 8012
2 atoms in group oxygen
group            thorium    id 7995 8019
2 atoms in group thorium
group            1          subtract sphere oxygen
43 atoms in group 1
group            cluster          union    1 thorium
45 atoms in group cluster
group            Th       type     2
5985 atoms in group Th
group            O        type     1
11970 atoms in group O
group            Th_group   intersect  cluster   Th
15 atoms in group Th_group
group            O_group    intersect  cluster   O
30 atoms in group O_group
set              group      Th_group   type/subset   3  $n  2253
set              group      Th_group   type/subset   3  8  2253
Setting atom values ...
  8 settings made for type/subset
group            Xe         type       3
16 atoms in group Xe
group            delete     subtract   cluster   Xe
37 atoms in group delete
delete_atoms     group      delete
Deleted 37 atoms, new total = 17926
group            Xe         delete
group            delete     delete

region           sphere     delete
group            sphere     delete
group            oxygen     delete
group            thorium    delete
group            1          delete
group            cluster    delete
group            Th         delete
group            O          delete
group            Th_group   delete
group            O_group    delete

region           sphere    sphere     13.67 108.211 13.67 5.0  units box
group            sphere     region  sphere
45 atoms in group sphere
group            oxygen     id 8431 8432
2 atoms in group oxygen
group            thorium    id 8415  8439
2 atoms in group thorium
group            1          subtract sphere oxygen
43 atoms in group 1
group            cluster          union    1 thorium
45 atoms in group cluster
group            Th       type     2
5970 atoms in group Th
group            O        type     1
11940 atoms in group O
group            Th_group   intersect  cluster   Th
15 atoms in group Th_group
group            O_group    intersect  cluster   O
30 atoms in group O_group
set              group      Th_group   type/subset   3  $n  2253
set              group      Th_group   type/subset   3  8  2253
Setting atom values ...
  8 settings made for type/subset
group            Xe         type       3
24 atoms in group Xe
group            delete     subtract   cluster   Xe
37 atoms in group delete
delete_atoms     group      delete
Deleted 37 atoms, new total = 17889
group            Xe         delete
group            delete     delete

region           sphere     delete
group            sphere     delete
group            oxygen     delete
group            thorium    delete
group            1          delete
group            cluster    delete
group            Th         delete
group            O          delete
group            Th_group   delete
group            O_group    delete

region           sphere    sphere     13.67 147.291 13.67 5.0  units box
group            sphere     region  sphere
45 atoms in group sphere
group            oxygen     id 8851 8852
2 atoms in group oxygen
group            thorium    id 8835 8859
2 atoms in group thorium
group            1          subtract sphere oxygen
43 atoms in group 1
group            cluster          union    1 thorium
45 atoms in group cluster
group            Th       type     2
5955 atoms in group Th
group            O        type     1
11910 atoms in group O
group            Th_group   intersect  cluster   Th
15 atoms in group Th_group
group            O_group    intersect  cluster   O
30 atoms in group O_group
set              group      Th_group   type/subset   3  $n  2253
set              group      Th_group   type/subset   3  8  2253
Setting atom values ...
  8 settings made for type/subset
group            Xe         type       3
32 atoms in group Xe
group            delete     subtract   cluster   Xe
37 atoms in group delete
delete_atoms     group      delete
Deleted 37 atoms, new total = 17852
group            Xe         delete
group            delete     delete

region           sphere     delete
group            sphere     delete
group            oxygen     delete
group            thorium    delete
group            1          delete
group            cluster    delete
group            Th         delete
group            O          delete
group            Th_group   delete
group            O_group    delete

region           sphere    sphere     13.67 191.955 13.67 5.0  units box
group            sphere     region  sphere
45 atoms in group sphere
group            oxygen     id 9331 9332
2 atoms in group oxygen
group            thorium    id 9315 9339
2 atoms in group thorium
group            1          subtract sphere oxygen
43 atoms in group 1
group            cluster          union    1 thorium
45 atoms in group cluster
group            Th       type     2
5940 atoms in group Th
group            O        type     1
11880 atoms in group O
group            Th_group   intersect  cluster   Th
15 atoms in group Th_group
group            O_group    intersect  cluster   O
30 atoms in group O_group
set              group      Th_group   type/subset   3  $n  2253
set              group      Th_group   type/subset   3  8  2253
Setting atom values ...
  8 settings made for type/subset
group            Xe         type       3
40 atoms in group Xe
group            delete     subtract   cluster   Xe
37 atoms in group delete
delete_atoms     group      delete
Deleted 37 atoms, new total = 17815
group            Xe         delete
group            delete     delete

region           sphere     delete
group            sphere     delete
group            oxygen     delete
group            thorium    delete
group            1          delete
group            cluster    delete
group            Th         delete
group            O          delete
group            Th_group   delete
group            O_group    delete

region           sphere    sphere     13.67 225.452 13.67 5.0  units box
group            sphere     region  sphere
45 atoms in group sphere
group            oxygen     id 9691 9692
2 atoms in group oxygen
group            thorium    id 9675 9699
2 atoms in group thorium
group            1          subtract sphere oxygen
43 atoms in group 1
group            cluster          union    1 thorium
45 atoms in group cluster
group            Th       type     2
5925 atoms in group Th
group            O        type     1
11850 atoms in group O
group            Th_group   intersect  cluster   Th
15 atoms in group Th_group
group            O_group    intersect  cluster   O
30 atoms in group O_group
set              group      Th_group   type/subset   3  $n  2253
set              group      Th_group   type/subset   3  8  2253
Setting atom values ...
  8 settings made for type/subset
group            Xe         type       3
48 atoms in group Xe
group            delete     subtract   cluster   Xe
37 atoms in group delete
delete_atoms     group      delete
Deleted 37 atoms, new total = 17778
group            Xe         delete
group            delete     delete

region           sphere     delete
group            sphere     delete
group            oxygen     delete
group            thorium    delete
group            1          delete
group            cluster    delete
group            Th         delete
group            O          delete
group            Th_group   delete
group            O_group    delete

region           sphere    sphere     13.67 264.532 13.67 5.0  units box
group            sphere     region  sphere
45 atoms in group sphere
group            oxygen     id 10111 10112
2 atoms in group oxygen
group            thorium    id 10095 10119
2 atoms in group thorium
group            1          subtract sphere oxygen
43 atoms in group 1
group            cluster          union    1 thorium
45 atoms in group cluster
group            Th       type     2
5910 atoms in group Th
group            O        type     1
11820 atoms in group O
group            Th_group   intersect  cluster   Th
15 atoms in group Th_group
group            O_group    intersect  cluster   O
30 atoms in group O_group
set              group      Th_group   type/subset   3  $n  2253
set              group      Th_group   type/subset   3  8  2253
Setting atom values ...
  8 settings made for type/subset
group            Xe         type       3
56 atoms in group Xe
group            delete     subtract   cluster   Xe
37 atoms in group delete
delete_atoms     group      delete
Deleted 37 atoms, new total = 17741
group            Xe         delete
group            delete     delete

region           sphere     delete
group            sphere     delete
group            oxygen     delete
group            thorium    delete
group            1          delete
group            cluster    delete
group            Th         delete
group            O          delete
group            Th_group   delete
group            O_group    delete

region           sphere    sphere     13.67 298.03 13.67 5.0  units box
group            sphere     region  sphere
45 atoms in group sphere
group            oxygen     id 10471 10472
2 atoms in group oxygen
group            thorium    id 10455 10479
2 atoms in group thorium
group            1          subtract sphere oxygen
43 atoms in group 1
group            cluster          union    1 thorium
45 atoms in group cluster
group            Th       type     2
5895 atoms in group Th
group            O        type     1
11790 atoms in group O
group            Th_group   intersect  cluster   Th
15 atoms in group Th_group
group            O_group    intersect  cluster   O
30 atoms in group O_group
set              group      Th_group   type/subset   3  $n  2253
set              group      Th_group   type/subset   3  8  2253
Setting atom values ...
  8 settings made for type/subset
group            Xe         type       3
64 atoms in group Xe
group            delete     subtract   cluster   Xe
37 atoms in group delete
delete_atoms     group      delete
Deleted 37 atoms, new total = 17704
group            Xe         delete
group            delete     delete

region           sphere     delete
group            sphere     delete
group            oxygen     delete
group            thorium    delete
group            1          delete
group            cluster    delete
group            Th         delete
group            O          delete
group            Th_group   delete
group            O_group    delete

set                         type    1      charge   -1.1104
Setting atom values ...
  11760 settings made for charge
set                         type    2      charge    2.2208
Setting atom values ...
  5880 settings made for charge
set                         type    3      charge    0.0
Setting atom values ...
  64 settings made for charge
kspace_style                pppm     1.0e-05
pair_style                  hybrid/overlay  coul/long   11.0  eam/alloy  table  linear  1000  pppm
pair_coeff                  * * coul/long
pair_coeff                  * * eam/alloy CeThUNpPuAmCmO.eam.alloy O Th NULL
pair_coeff                  3 3 table CRG_gas_potentials.lmptab Xe-Xe 11
  Should only be flagged at inflection points (../pair_table.cpp:461)
pair_coeff                  1 3 table CRG_gas_potentials.lmptab Xe-O 11
  Should only be flagged at inflection points (../pair_table.cpp:461)
pair_coeff                  2 3 table CRG_gas_potentials.lmptab Xe-Th 11
  Should only be flagged at inflection points (../pair_table.cpp:461)
neighbor                    2.0  bin
neigh_modify                every  1  delay  0  check  yes

# fully relaxing the defect configuration at 0K
fix                box_relax  all  box/relax aniso 0.0 vmax 0.001
min_style          cg
minimize           1.0e-30 1.0e-30 10000 10000
PPPM initialization ...
  G vector (1/distance) = 0.29911671
  grid = 40 240 40
  stencil order = 5
  estimated absolute RMS force accuracy = 0.00015350963
  estimated relative force accuracy = 1.0660654e-05
  3d grid and FFT values/proc = 18225 7600
  update every 1 steps, delay 0 steps, check yes
Step Temp E_pair E_mol TotEng Press Volume
0            0   -231453.73            0   -231453.73    787.93519    260641.98
Loop time of 26.7655 on 52 procs for 1251 steps with 17704 atoms

Minimization stats:
  Stopping criterion = linesearch alpha is zero
  Energy initial, next-to-last, final =
  Force two-norm initial, final = 360.73421 28.761759
  Force max component initial, final = 237.00477 24.117858
  Final line search alpha, max atom move = 1.4400822e-11 3.4731697e-10
  Iterations, force evaluations = 1251 2514

unfix              box_relax

# apply the temperature into the system and relaxing at the temperature of interest
reset_atom_ids
PPPM initialization ...
  G vector (1/distance) = 0.29910442
  grid = 40 240 40
  stencil order = 5
  estimated absolute RMS force accuracy = 0.00015357694
  estimated relative force accuracy = 1.0665328e-05
  3d grid and FFT values/proc = 18225 7600
  update every 1 steps, delay 0 steps, check yes
Finding 1-2 1-3 1-4 neighbors ...
     0 = max # of 1-2 neighbors
     0 = max # of 1-3 neighbors
     0 = max # of 1-4 neighbors
     1 = max # of special neighbors
variable                    temp      equal    1200
velocity                    all  create   1200  4542  dist  gaussian  rot  yes  mom  yes
fix                         npt  all  npt  temp  1200  1200  $(100*dt) aniso  0.0  0.0  $(1000*dt)
fix                         npt  all  npt  temp  1200  1200  0.10000000000000000555 aniso  0.0  0.0  $(1000*dt)
fix                         npt  all  npt  temp  1200  1200  0.10000000000000000555 aniso  0.0  0.0  1

thermo                      10000
thermo_style                custom   step dt time atoms temp pe ke press vol

shell                       mkdir vac_0.02_1200K
dump                        1  all  custom  10000  ./vac_0.02_1200K/dump_relax.atom.* id type q x y z
dump_modify                 1  element  O  Th  Xe

run                         100000
PPPM initialization ...
  G vector (1/distance) = 0.29910442
  grid = 40 240 40
  stencil order = 5
  estimated absolute RMS force accuracy = 0.00015357694
  estimated relative force accuracy = 1.0665328e-05
  3d grid and FFT values/proc = 18225 7600
  update every 1 steps, delay 0 steps, check yes
Step Dt Time Atoms Temp PotEng KinEng Press Volume
1251        0.001            0    17704         1200   -231807.94    2745.9508    11328.437    260907.21
Averages over the last 6 of 12 rows, steps 60000 to 101251:
Dt Atoms Temp PotEng KinEng Press Volume
0.001 17704 1201.75 -228920 2749.95 295.039 269947
Loop time of 815.969 on 52 procs for 100000 steps with 17704 atoms

shell                       mkdir thermal_condu
write_data                  thermal_condu/vac_0.02_relaxed.dat
System init for write_data ...
PPPM initialization ...
  G vector (1/distance) = 0.29846518
  grid = 40 240 40
  stencil order = 5
  estimated absolute RMS force accuracy = 0.00015880442
  estimated relative force accuracy = 1.1028357e-05
  3d grid and FFT values/proc = 18225 7600
  update every 1 steps, delay 0 steps, check yes
