LAMMPS (29 Oct 2020)
#-------------------------
#
#This script is used to create different concentrations of vacancies in thorium dioxide
#By Ziqiang Wang on 07/03/2023
#
#-------------------------

clear
units                        metal
dimension                        3
boundary                     p p p
atom_style                   full
atom_modify                  map array

read_data                   perfect_relaxed.dat
Reading data file ...
  orthogonal box = (-0.27717828 -3.4472206 -0.27717828) to (27.617178 331.52722 27.617178)
  reading atoms ...
  18000 atoms
  reading velocities ...
  18000 velocities
Finding 1-2 1-3 1-4 neighbors ...
     0 = max # of 1-2 neighbors
     0 = max # of 1-3 neighbors
     0 = max # of 1-4 neighbors
     1 = max # of special neighbors

# randomly create vacancies in the relaxed perfect crystal
variable         n               equal    30
variable         vac_ratio       equal    0.02
region           sphere    sphere     13.67 119.377 13.67 8.5  units box
group            sphere     region  sphere
191 atoms in group sphere
group            oxygen     id 4880 8539 4938 8477 4832 8423 5010 8601 4908 8567 4966 8443 8505 4836 8621 5014
16 atoms in group oxygen
group            thorium    id 8533 8608 8569 8428 8570
5 atoms in group thorium
group            1          subtract sphere oxygen
175 atoms in group 1
group            cluster          union    1 thorium
180 atoms in group cluster
group            Th       type     2
6000 atoms in group Th
group            O        type     1
12000 atoms in group O
group            Th_group   intersect  cluster   Th
60 atoms in group Th_group
group            O_group    intersect  cluster   O
120 atoms in group O_group
set              group      Th_group   type/subset   3   $n   12255
set              group      Th_group   type/subset   3   30   12255
Setting atom values ...
  30 settings made for type/subset
group            Xe         type       3
30 atoms in group Xe
group            delete     subtract   cluster   Xe
150 atoms in group delete
delete_atoms     group      delete
Deleted 150 atoms, new total = 17850
group            Xe         delete
group            delete     delete

region           sphere     delete
group            sphere     delete
group            oxygen     delete
group            thorium    delete
group            1          delete
group            cluster    delete
group            Th         delete
group            O          delete
group            Th_group   delete
group            O_group    delete

region           sphere    sphere     13.67 214.286 13.67 8.5  units box
group            sphere     region  sphere
191 atoms in group sphere
group            oxygen     id 9621 6030 9497 5852 9443 5958 9559 5900 6034 9463 9525 5856 5986 9587 5928 9641
16 atoms in group oxygen
group            thorium    id 9553 9628 9448 9589 9590
5 atoms in group thorium
group            1          subtract sphere oxygen
175 atoms in group 1
group            cluster          union    1 thorium
180 atoms in group cluster
group            Th       type     2
5940 atoms in group Th
group            O        type     1
11880 atoms in group O
group            Th_group   intersect  cluster   Th
60 atoms in group Th_group
group            O_group    intersect  cluster   O
120 atoms in group O_group
set              group      Th_group   type/subset   3   $n   12255
set              group      Th_group   type/subset   3   30   12255
Setting atom values ...
  30 settings made for type/subset
group            Xe         type       3
60 atoms in group Xe
group            delete     subtract   cluster   Xe
150 atoms in group delete
delete_atoms     group      delete
Deleted 150 atoms, new total = 17700
group            Xe         delete
group            delete     delete

region           sphere     delete
group            sphere     delete
group            oxygen     delete
group            thorium    delete
group            1          delete
group            cluster    delete
group            Th         delete
group            O          delete
group            Th_group   delete
group            O_group    delete

set                         type    1      charge   -1.1104
Setting atom values ...
  11760 settings made for charge
set                         type    2      charge    2.2208
Setting atom values ...
  5880 settings made for charge
set                         type    3      charge    0.0
Setting atom values ...
  60 settings made for charge
kspace_style                pppm     1.0e-05
pair_style                  hybrid/overlay  coul/long   11.0  eam/alloy  table  linear  1000  pppm
pair_coeff                  * * coul/long
pair_coeff                  * * eam/alloy CeThUNpPuAmCmO.eam.alloy O Th NULL
pair_coeff                  3 3 table CRG_gas_potentials.lmptab Xe-Xe 11
  Should only be flagged at inflection points (../pair_table.cpp:461)
pair_coeff                  1 3 table CRG_gas_potentials.lmptab Xe-O 11
  Should only be flagged at inflection points (../pair_table.cpp:461)
pair_coeff                  2 3 table CRG_gas_potentials.lmptab Xe-Th 11
  Should only be flagged at inflection points (../pair_table.cpp:461)
neighbor                    2.0  bin
neigh_modify                every  1  delay  0  check  yes

# fully relaxing the defect configuration at 0K
fix                box_relax  all  box/relax aniso 0.0 vmax 0.001
min_style          cg
minimize           1.0e-30 1.0e-30 10000 10000
PPPM initialization ...
  G vector (1/distance) = 0.29911702
  grid = 40 240 40
  stencil order = 5
  estimated absolute RMS force accuracy = 0.00015352568
  estimated relative force accuracy = 1.0661769e-05
  3d grid and FFT values/proc = 18225 7600
  update every 1 steps, delay 0 steps, check yes
Step Temp E_pair E_mol TotEng Press Volume
0            0   -231331.08            0   -231331.08    1456.5215    260641.98
Loop time of 2.42787 on 52 procs for 112 steps with 17700 atoms

Minimization stats:
  Stopping criterion = linesearch alpha is zero
  Energy initial, next-to-last, final =
  Force two-norm initial, final = 525.72348 108.58300
  Force max component initial, final = 468.65215 79.225006
  Final line search alpha, max atom move = 8.9449458e-13 7.0866338e-11
  Iterations, force evaluations = 112 211

unfix              box_relax

# apply the temperature into the system and relaxing at the temperature of interest
reset_atom_ids
PPPM initialization ...
  G vector (1/distance) = 0.2990896
  grid = 40 240 40
  stencil order = 5
  estimated absolute RMS force accuracy = 0.00015373045
  estimated relative force accuracy = 1.0675989e-05
  3d grid and FFT values/proc = 18225 7600
  update every 1 steps, delay 0 steps, check yes
Finding 1-2 1-3 1-4 neighbors ...
     0 = max # of 1-2 neighbors
     0 = max # of 1-3 neighbors
     0 = max # of 1-4 neighbors
     1 = max # of special neighbors
variable                    temp      equal    1200
velocity                    all  create   1200  4542  dist  gaussian  rot  yes  mom  yes
fix                         npt  all  npt  temp  1200  1200  $(100*dt) aniso  0.0  0.0  $(1000*dt)
fix                         npt  all  npt  temp  1200  1200  0.10000000000000000555 aniso  0.0  0.0  $(1000*dt)
fix                         npt  all  npt  temp  1200  1200  0.10000000000000000555 aniso  0.0  0.0  1

thermo                      10000
thermo_style                custom   step dt time atoms temp pe ke press vol

shell                       mkdir vac_0.02_1200K
dump                        1  all  custom  10000  ./vac_0.02_1200K/dump_relax.atom.* id type q x y z
dump_modify                 1  element  O  Th  Xe

run                         100000
PPPM initialization ...
  G vector (1/distance) = 0.2990896
  grid = 40 240 40
  stencil order = 5
  estimated absolute RMS force accuracy = 0.00015373045
  estimated relative force accuracy = 1.0675989e-05
  3d grid and FFT values/proc = 18225 7600
  update every 1 steps, delay 0 steps, check yes
Step Dt Time Atoms Temp PotEng KinEng Press Volume
112        0.001            0    17700         1200   -231713.65    2745.3304    11564.659    261074.01
Averages over the last 6 of 12 rows, steps 60000 to 100112:
Dt Atoms Temp PotEng KinEng Press Volume
0.001 17700 1201.39 -229049 2748.51 814.355 269683
Loop time of 880.203 on 52 procs for 100000 steps with 17700 atoms

shell                       mkdir thermal_condu
write_data                  thermal_condu/vac_0.02_relaxed.dat
System init for write_data ...
PPPM initialization ...
  G vector (1/distance) = 0.29848558
  grid = 40 240 40
  stencil order = 5
  estimated absolute RMS force accuracy = 0.00015857524
  estimated relative force accuracy = 1.1012441e-05
  3d grid and FFT values/proc = 18225 7600
  update every 1 steps, delay 0 steps, check yes
