LAMMPS (29 Oct 2020)
#-------------------------
#
#This script is used to create different concentrations of vacancies in thorium dioxide
#By Ziqiang Wang on 07/03/2023
#
#-------------------------

shell                        replace_file.sh
variable                     n       loop   15
label                        loop
clear
units                        metal
dimension                        3
boundary                     p p p
atom_style                   full
atom_modify                  map array

read_data                    add_Xe.dat
Reading data file ...
  orthogonal box = (-0.27717828 -3.4472206 -0.27717828) to (27.617178 331.52722 27.617178)
  reading atoms ...
  17644 atoms
Finding 1-2 1-3 1-4 neighbors ...
     0 = max # of 1-2 neighbors
     0 = max # of 1-3 neighbors
     0 = max # of 1-4 neighbors
     1 = max # of special neighbors

# randomly create vacancies in the relaxed perfect crystal
set                         type    1      charge   -1.1104
Setting atom values ...
  11760 settings made for charge
set                         type    2      charge    2.2208
Setting atom values ...
  5880 settings made for charge
set                         type    3      charge    0.0
Setting atom values ...
  4 settings made for charge
kspace_style                pppm     1.0e-05
pair_style                  hybrid/overlay  coul/long   11.0  eam/alloy  table  linear  100000  pppm
pair_coeff                  * * coul/long
pair_coeff                  * * eam/alloy CeThUNpPuAmCmO.eam.alloy O Th NULL
pair_coeff                  3 3 table CRG_gas_potentials.lmptab Xe-Xe 11
  Should only be flagged at inflection points (../pair_table.cpp:461)
pair_coeff                  1 3 table CRG_gas_potentials.lmptab Xe-O 11
  Should only be flagged at inflection points (../pair_table.cpp:461)
pair_coeff                  2 3 table CRG_gas_potentials.lmptab Xe-Th 11
  Should only be flagged at inflection points (../pair_table.cpp:461)
neighbor                    2.0  bin
neigh_modify                every  1  delay  0  check  yes

dump               1   all  custom  10000 dump_relax.atom.* id type q x y z
dump_modify        1   element  O Th Xe

min_style          cg
minimize           1.0e-30 1.0e-30 10000 10000
PPPM initialization ...
  G vector (1/distance) = 0.29912134
  grid = 40 240 40
  stencil order = 5
  estimated absolute RMS force accuracy = 0.0001537511
  estimated relative force accuracy = 1.0677423e-05
  3d grid and FFT values/proc = 18225 7600
  update every 1 steps, delay 0 steps, check yes
Step Temp E_pair E_mol TotEng Press
0            0   -231784.04            0   -231784.04      1054.64
Loop time of 7.629 on 52 procs for 324 steps with 17644 atoms

Minimization stats:
  Stopping criterion = linesearch alpha is zero
  Energy initial, next-to-last, final =
  Force two-norm initial, final = 0.052064018 0.022633884
  Force max component initial, final = 0.0348448 0.0034901244
  Final line search alpha, max atom move = 1.5258789e-05 5.3255072e-08
  Iterations, force evaluations = 324 941

reset_atom_ids
PPPM initialization ...
  G vector (1/distance) = 0.29912134
  grid = 40 240 40
  stencil order = 5
  estimated absolute RMS force accuracy = 0.0001537511
  estimated relative force accuracy = 1.0677423e-05
  3d grid and FFT values/proc = 18225 7600
  update every 1 steps, delay 0 steps, check yes
Finding 1-2 1-3 1-4 neighbors ...
     0 = max # of 1-2 neighbors
     0 = max # of 1-3 neighbors
     0 = max # of 1-4 neighbors
     1 = max # of special neighbors
variable           T     equal   600
velocity           all   create  $T  4111 dist gaussian mom yes rot yes
velocity           all   create  600  4111 dist gaussian mom yes rot yes
fix                nvt   all     nvt   temp  $T  $T  0.1
fix                nvt   all     nvt   temp  600  $T  0.1
fix                nvt   all     nvt   temp  600  600  0.1
run                10000
PPPM initialization ...
  G vector (1/distance) = 0.29912134
  grid = 40 240 40
  stencil order = 5
  estimated absolute RMS force accuracy = 0.0001537511
  estimated relative force accuracy = 1.0677423e-05
  3d grid and FFT values/proc = 18225 7600
  update every 1 steps, delay 0 steps, check yes
Step Temp E_pair E_mol TotEng Press
324          600   -231784.12            0    -230415.8    6660.3698
Loop time of 71.5717 on 52 procs for 10000 steps with 17644 atoms

unfix              nvt
write_data         Xe_relaxed.dat
System init for write_data ...
PPPM initialization ...
  G vector (1/distance) = 0.29912134
  grid = 40 240 40
  stencil order = 5
  estimated absolute RMS force accuracy = 0.0001537511
  estimated relative force accuracy = 1.0677423e-05
  3d grid and FFT values/proc = 18225 7600
  update every 1 steps, delay 0 steps, check yes
next               n
variable           tot    equal   17640+(2*4)
shell              add_Xe.sh 17648
jump               random_vac.in   loop
clear
units                        metal
dimension                        3
boundary                     p p p
atom_style                   full
atom_modify                  map array

read_data                    add_Xe.dat
Reading data file ...
  orthogonal box = (-0.27717828 -3.4472206 -0.27717828) to (27.617178 331.52722 27.617178)
  reading atoms ...
  17648 atoms
Finding 1-2 1-3 1-4 neighbors ...
     0 = max # of 1-2 neighbors
     0 = max # of 1-3 neighbors
     0 = max # of 1-4 neighbors
     1 = max # of special neighbors

# randomly create vacancies in the relaxed perfect crystal
set                         type    1      charge   -1.1104
Setting atom values ...
  11760 settings made for charge
set                         type    2      charge    2.2208
Setting atom values ...
  5880 settings made for charge
set                         type    3      charge    0.0
Setting atom values ...
  8 settings made for charge
kspace_style                pppm     1.0e-05
pair_style                  hybrid/overlay  coul/long   11.0  eam/alloy  table  linear  100000  pppm
pair_coeff                  * * coul/long
pair_coeff                  * * eam/alloy CeThUNpPuAmCmO.eam.alloy O Th NULL
pair_coeff                  3 3 table CRG_gas_potentials.lmptab Xe-Xe 11
  Should only be flagged at inflection points (../pair_table.cpp:461)
pair_coeff                  1 3 table CRG_gas_potentials.lmptab Xe-O 11
  Should only be flagged at inflection points (../pair_table.cpp:461)
pair_coeff                  2 3 table CRG_gas_potentials.lmptab Xe-Th 11
  Should only be flagged at inflection points (../pair_table.cpp:461)
neighbor                    2.0  bin
neigh_modify                every  1  delay  0  check  yes

dump               1   all  custom  10000 dump_relax.atom.* id type q x y z
dump_modify        1   element  O Th Xe

min_style          cg
minimize           1.0e-30 1.0e-30 10000 10000
PPPM initialization ...
  G vector (1/distance) = 0.29912103
  grid = 40 240 40
  stencil order = 5
  estimated absolute RMS force accuracy = 0.00015373496
  estimated relative force accuracy = 1.0676302e-05
  3d grid and FFT values/proc = 18225 7600
  update every 1 steps, delay 0 steps, check yes
Step Temp E_pair E_mol TotEng Press
0            0   -230477.33            0   -230477.33    21441.841
Loop time of 4.44885 on 52 procs for 261 steps with 17648 atoms

Minimization stats:
  Stopping criterion = linesearch alpha is zero
  Energy initial, next-to-last, final =
  Force two-norm initial, final = 205.40690 0.031301547
  Force max component initial, final = 4.3463075 0.0052470978
  Final line search alpha, max atom move = 7.6293945e-06 4.0032179e-08
  Iterations, force evaluations = 261 554

reset_atom_ids
PPPM initialization ...
  G vector (1/distance) = 0.29912103
  grid = 40 240 40
  stencil order = 5
  estimated absolute RMS force accuracy = 0.00015373496
  estimated relative force accuracy = 1.0676302e-05
  3d grid and FFT values/proc = 18225 7600
  update every 1 steps, delay 0 steps, check yes
Finding 1-2 1-3 1-4 neighbors ...
     0 = max # of 1-2 neighbors
     0 = max # of 1-3 neighbors
     0 = max # of 1-4 neighbors
     1 = max # of special neighbors
variable           T     equal   600
velocity           all   create  $T  4111 dist gaussian mom yes rot yes
velocity           all   create  600  4111 dist gaussian mom yes rot yes
fix                nvt   all     nvt   temp  $T  $T  0.1
fix                nvt   all     nvt   temp  600  $T  0.1
fix                nvt   all     nvt   temp  600  600  0.1
run                10000
PPPM initialization ...
  G vector (1/distance) = 0.29912103
  grid = 40 240 40
  stencil order = 5
  estimated absolute RMS force accuracy = 0.00015373496
  estimated relative force accuracy = 1.0676302e-05
  3d grid and FFT values/proc = 18225 7600
  update every 1 steps, delay 0 steps, check yes
Step Temp E_pair E_mol TotEng Press
261          600   -231863.95            0   -230495.32    5473.4625
Loop time of 71.4226 on 52 procs for 10000 steps with 17648 atoms

unfix              nvt
write_data         Xe_relaxed.dat
System init for write_data ...
PPPM initialization ...
  G vector (1/distance) = 0.29912103
  grid = 40 240 40
  stencil order = 5
  estimated absolute RMS force accuracy = 0.00015373496
  estimated relative force accuracy = 1.0676302e-05
  3d grid and FFT values/proc = 18225 7600
  update every 1 steps, delay 0 steps, check yes
next               n
variable           tot    equal   17640+(3*4)
shell              add_Xe.sh 17652
jump               random_vac.in   loop
clear
units                        metal
dimension                        3
boundary                     p p p
atom_style                   full
atom_modify                  map array

read_data                    add_Xe.dat
Reading data file ...
  orthogonal box = (-0.27717828 -3.4472206 -0.27717828) to (27.617178 331.52722 27.617178)
  reading atoms ...
  17652 atoms
Finding 1-2 1-3 1-4 neighbors ...
     0 = max # of 1-2 neighbors
     0 = max # of 1-3 neighbors
     0 = max # of 1-4 neighbors
     1 = max # of special neighbors

# randomly create vacancies in the relaxed perfect crystal
set                         type    1      charge   -1.1104
Setting atom values ...
  11760 settings made for charge
set                         type    2      charge    2.2208
Setting atom values ...
  5880 settings made for charge
set                         type    3      charge    0.0
Setting atom values ...
  12 settings made for charge
kspace_style                pppm     1.0e-05
pair_style                  hybrid/overlay  coul/long   11.0  eam/alloy  table  linear  100000  pppm
pair_coeff                  * * coul/long
pair_coeff                  * * eam/alloy CeThUNpPuAmCmO.eam.alloy O Th NULL
pair_coeff                  3 3 table CRG_gas_potentials.lmptab Xe-Xe 11
  Should only be flagged at inflection points (../pair_table.cpp:461)
pair_coeff                  1 3 table CRG_gas_potentials.lmptab Xe-O 11
  Should only be flagged at inflection points (../pair_table.cpp:461)
pair_coeff                  2 3 table CRG_gas_potentials.lmptab Xe-Th 11
  Should only be flagged at inflection points (../pair_table.cpp:461)
neighbor                    2.0  bin
neigh_modify                every  1  delay  0  check  yes

dump               1   all  custom  10000 dump_relax.atom.* id type q x y z
dump_modify        1   element  O Th Xe

min_style          cg
minimize           1.0e-30 1.0e-30 10000 10000
PPPM initialization ...
  G vector (1/distance) = 0.29912072
  grid = 40 240 40
  stencil order = 5
  estimated absolute RMS force accuracy = 0.00015371882
  estimated relative force accuracy = 1.0675182e-05
  3d grid and FFT values/proc = 18225 7600
  update every 1 steps, delay 0 steps, check yes
Step Temp E_pair E_mol TotEng Press
0            0   -230476.65            0   -230476.65    21564.493
Loop time of 7.21152 on 52 procs for 364 steps with 17652 atoms

Minimization stats:
  Stopping criterion = linesearch alpha is zero
  Energy initial, next-to-last, final =
  Force two-norm initial, final = 207.10757 0.022744746
  Force max component initial, final = 9.0229935 0.0040225291
  Final line search alpha, max atom move = 1.5258789e-05 6.1378923e-08
  Iterations, force evaluations = 364 904

reset_atom_ids
PPPM initialization ...
  G vector (1/distance) = 0.29912072
  grid = 40 240 40
  stencil order = 5
  estimated absolute RMS force accuracy = 0.00015371882
  estimated relative force accuracy = 1.0675182e-05
  3d grid and FFT values/proc = 18225 7600
  update every 1 steps, delay 0 steps, check yes
Finding 1-2 1-3 1-4 neighbors ...
     0 = max # of 1-2 neighbors
     0 = max # of 1-3 neighbors
     0 = max # of 1-4 neighbors
     1 = max # of special neighbors
variable           T     equal   600
velocity           all   create  $T  4111 dist gaussian mom yes rot yes
velocity           all   create  600  4111 dist gaussian mom yes rot yes
fix                nvt   all     nvt   temp  $T  $T  0.1
fix                nvt   all     nvt   temp  600  $T  0.1
fix                nvt   all     nvt   temp  600  600  0.1
run                10000
PPPM initialization ...
  G vector (1/distance) = 0.29912072
  grid = 40 240 40
  stencil order = 5
  estimated absolute RMS force accuracy = 0.00015371882
  estimated relative force accuracy = 1.0675182e-05
  3d grid and FFT values/proc = 18225 7600
  update every 1 steps, delay 0 steps, check yes
Step Temp E_pair E_mol TotEng Press
364          600   -231863.99            0   -230495.05    5505.1037
Loop time of 71.4112 on 52 procs for 10000 steps with 17652 atoms

unfix              nvt
write_data         Xe_relaxed.dat
System init for write_data ...
PPPM initialization ...
  G vector (1/distance) = 0.29912072
  grid = 40 240 40
  stencil order = 5
  estimated absolute RMS force accuracy = 0.00015371882
  estimated relative force accuracy = 1.0675182e-05
  3d grid and FFT values/proc = 18225 7600
  update every 1 steps, delay 0 steps, check yes
next               n
variable           tot    equal   17640+(4*4)
shell              add_Xe.sh 17656
jump               random_vac.in   loop
clear
units                        metal
dimension                        3
boundary                     p p p
atom_style                   full
atom_modify                  map array

read_data                    add_Xe.dat
Reading data file ...
  orthogonal box = (-0.27717828 -3.4472206 -0.27717828) to (27.617178 331.52722 27.617178)
  reading atoms ...
  17656 atoms
Finding 1-2 1-3 1-4 neighbors ...
     0 = max # of 1-2 neighbors
     0 = max # of 1-3 neighbors
     0 = max # of 1-4 neighbors
     1 = max # of special neighbors

# randomly create vacancies in the relaxed perfect crystal
set                         type    1      charge   -1.1104
Setting atom values ...
  11760 settings made for charge
set                         type    2      charge    2.2208
Setting atom values ...
  5880 settings made for charge
set                         type    3      charge    0.0
Setting atom values ...
  16 settings made for charge
kspace_style                pppm     1.0e-05
pair_style                  hybrid/overlay  coul/long   11.0  eam/alloy  table  linear  100000  pppm
pair_coeff                  * * coul/long
pair_coeff                  * * eam/alloy CeThUNpPuAmCmO.eam.alloy O Th NULL
pair_coeff                  3 3 table CRG_gas_potentials.lmptab Xe-Xe 11
  Should only be flagged at inflection points (../pair_table.cpp:461)
pair_coeff                  1 3 table CRG_gas_potentials.lmptab Xe-O 11
  Should only be flagged at inflection points (../pair_table.cpp:461)
pair_coeff                  2 3 table CRG_gas_potentials.lmptab Xe-Th 11
  Should only be flagged at inflection points (../pair_table.cpp:461)
neighbor                    2.0  bin
neigh_modify                every  1  delay  0  check  yes

dump               1   all  custom  10000 dump_relax.atom.* id type q x y z
dump_modify        1   element  O Th Xe

min_style          cg
minimize           1.0e-30 1.0e-30 10000 10000
PPPM initialization ...
  G vector (1/distance) = 0.29912041
  grid = 40 240 40
  stencil order = 5
  estimated absolute RMS force accuracy = 0.0001537027
  estimated relative force accuracy = 1.0674062e-05
  3d grid and FFT values/proc = 18225 7600
  update every 1 steps, delay 0 steps, check yes
Step Temp E_pair E_mol TotEng Press
0            0   -228997.16            0   -228997.16     31168.99
Loop time of 4.96089 on 52 procs for 283 steps with 17656 atoms

Minimization stats:
  Stopping criterion = linesearch alpha is zero
  Energy initial, next-to-last, final =
  Force two-norm initial, final = 6338.3368 0.042342257
  Force max component initial, final = 4465.9253 0.006276081
  Final line search alpha, max atom move = 3.8146973e-06 2.3941349e-08
  Iterations, force evaluations = 283 615

reset_atom_ids
PPPM initialization ...
  G vector (1/distance) = 0.29912041
  grid = 40 240 40
  stencil order = 5
  estimated absolute RMS force accuracy = 0.0001537027
  estimated relative force accuracy = 1.0674062e-05
  3d grid and FFT values/proc = 18225 7600
  update every 1 steps, delay 0 steps, check yes
Finding 1-2 1-3 1-4 neighbors ...
     0 = max # of 1-2 neighbors
     0 = max # of 1-3 neighbors
     0 = max # of 1-4 neighbors
     1 = max # of special neighbors
variable           T     equal   600
velocity           all   create  $T  4111 dist gaussian mom yes rot yes
velocity           all   create  600  4111 dist gaussian mom yes rot yes
fix                nvt   all     nvt   temp  $T  $T  0.1
fix                nvt   all     nvt   temp  600  $T  0.1
fix                nvt   all     nvt   temp  600  600  0.1
run                10000
PPPM initialization ...
  G vector (1/distance) = 0.29912041
  grid = 40 240 40
  stencil order = 5
  estimated absolute RMS force accuracy = 0.0001537027
  estimated relative force accuracy = 1.0674062e-05
  3d grid and FFT values/proc = 18225 7600
  update every 1 steps, delay 0 steps, check yes
Step Temp E_pair E_mol TotEng Press
283          600   -231864.62            0   -230495.37    5468.5927
Loop time of 71.1021 on 52 procs for 10000 steps with 17656 atoms

unfix              nvt
write_data         Xe_relaxed.dat
System init for write_data ...
PPPM initialization ...
  G vector (1/distance) = 0.29912041
  grid = 40 240 40
  stencil order = 5
  estimated absolute RMS force accuracy = 0.0001537027
  estimated relative force accuracy = 1.0674062e-05
  3d grid and FFT values/proc = 18225 7600
  update every 1 steps, delay 0 steps, check yes
next               n
variable           tot    equal   17640+(5*4)
shell              add_Xe.sh 17660
jump               random_vac.in   loop
clear
units                        metal
dimension                        3
boundary                     p p p
atom_style                   full
atom_modify                  map array

read_data                    add_Xe.dat
Reading data file ...
  orthogonal box = (-0.27717828 -3.4472206 -0.27717828) to (27.617178 331.52722 27.617178)
  reading atoms ...
  17660 atoms
Finding 1-2 1-3 1-4 neighbors ...
     0 = max # of 1-2 neighbors
     0 = max # of 1-3 neighbors
     0 = max # of 1-4 neighbors
     1 = max # of special neighbors

# randomly create vacancies in the relaxed perfect crystal
set                         type    1      charge   -1.1104
Setting atom values ...
  11760 settings made for charge
set                         type    2      charge    2.2208
Setting atom values ...
  5880 settings made for charge
set                         type    3      charge    0.0
Setting atom values ...
  20 settings made for charge
kspace_style                pppm     1.0e-05
pair_style                  hybrid/overlay  coul/long   11.0  eam/alloy  table  linear  100000  pppm
pair_coeff                  * * coul/long
pair_coeff                  * * eam/alloy CeThUNpPuAmCmO.eam.alloy O Th NULL
pair_coeff                  3 3 table CRG_gas_potentials.lmptab Xe-Xe 11
  Should only be flagged at inflection points (../pair_table.cpp:461)
pair_coeff                  1 3 table CRG_gas_potentials.lmptab Xe-O 11
  Should only be flagged at inflection points (../pair_table.cpp:461)
pair_coeff                  2 3 table CRG_gas_potentials.lmptab Xe-Th 11
  Should only be flagged at inflection points (../pair_table.cpp:461)
neighbor                    2.0  bin
neigh_modify                every  1  delay  0  check  yes

dump               1   all  custom  10000 dump_relax.atom.* id type q x y z
dump_modify        1   element  O Th Xe

min_style          cg
minimize           1.0e-30 1.0e-30 10000 10000
PPPM initialization ...
  G vector (1/distance) = 0.29912011
  grid = 40 240 40
  stencil order = 5
  estimated absolute RMS force accuracy = 0.00015368658
  estimated relative force accuracy = 1.0672942e-05
  3d grid and FFT values/proc = 18225 7600
  update every 1 steps, delay 0 steps, check yes
Step Temp E_pair E_mol TotEng Press
0            0   -230398.59            0   -230398.59    23123.482
Loop time of 6.714 on 52 procs for 349 steps with 17660 atoms

Minimization stats:
  Stopping criterion = linesearch alpha is zero
  Energy initial, next-to-last, final =
  Force two-norm initial, final = 361.83720 0.022240906
  Force max component initial, final = 179.96444 0.0025096157
  Final line search alpha, max atom move = 1.5258789e-05 3.8293696e-08
  Iterations, force evaluations = 349 839

reset_atom_ids
PPPM initialization ...
  G vector (1/distance) = 0.29912011
  grid = 40 240 40
  stencil order = 5
  estimated absolute RMS force accuracy = 0.00015368658
  estimated relative force accuracy = 1.0672942e-05
  3d grid and FFT values/proc = 18225 7600
  update every 1 steps, delay 0 steps, check yes
Finding 1-2 1-3 1-4 neighbors ...
     0 = max # of 1-2 neighbors
     0 = max # of 1-3 neighbors
     0 = max # of 1-4 neighbors
     1 = max # of special neighbors
variable           T     equal   600
velocity           all   create  $T  4111 dist gaussian mom yes rot yes
velocity           all   create  600  4111 dist gaussian mom yes rot yes
fix                nvt   all     nvt   temp  $T  $T  0.1
fix                nvt   all     nvt   temp  600  $T  0.1
fix                nvt   all     nvt   temp  600  600  0.1
run                10000
PPPM initialization ...
  G vector (1/distance) = 0.29912011
  grid = 40 240 40
  stencil order = 5
  estimated absolute RMS force accuracy = 0.00015368658
  estimated relative force accuracy = 1.0672942e-05
  3d grid and FFT values/proc = 18225 7600
  update every 1 steps, delay 0 steps, check yes
Step Temp E_pair E_mol TotEng Press
349          600   -231866.09            0   -230496.53    5389.8864
Loop time of 71.2829 on 52 procs for 10000 steps with 17660 atoms

unfix              nvt
write_data         Xe_relaxed.dat
System init for write_data ...
PPPM initialization ...
  G vector (1/distance) = 0.29912011
  grid = 40 240 40
  stencil order = 5
  estimated absolute RMS force accuracy = 0.00015368658
  estimated relative force accuracy = 1.0672942e-05
  3d grid and FFT values/proc = 18225 7600
  update every 1 steps, delay 0 steps, check yes
next               n
variable           tot    equal   17640+(6*4)
shell              add_Xe.sh 17664
jump               random_vac.in   loop
clear
units                        metal
dimension                        3
boundary                     p p p
atom_style                   full
atom_modify                  map array

read_data                    add_Xe.dat
Reading data file ...
  orthogonal box = (-0.27717828 -3.4472206 -0.27717828) to (27.617178 331.52722 27.617178)
  reading atoms ...
  17664 atoms
Finding 1-2 1-3 1-4 neighbors ...
     0 = max # of 1-2 neighbors
     0 = max # of 1-3 neighbors
     0 = max # of 1-4 neighbors
     1 = max # of special neighbors

# randomly create vacancies in the relaxed perfect crystal
set                         type    1      charge   -1.1104
Setting atom values ...
  11760 settings made for charge
set                         type    2      charge    2.2208
Setting atom values ...
  5880 settings made for charge
set                         type    3      charge    0.0
Setting atom values ...
  24 settings made for charge
kspace_style                pppm     1.0e-05
pair_style                  hybrid/overlay  coul/long   11.0  eam/alloy  table  linear  100000  pppm
pair_coeff                  * * coul/long
pair_coeff                  * * eam/alloy CeThUNpPuAmCmO.eam.alloy O Th NULL
pair_coeff                  3 3 table CRG_gas_potentials.lmptab Xe-Xe 11
  Should only be flagged at inflection points (../pair_table.cpp:461)
pair_coeff                  1 3 table CRG_gas_potentials.lmptab Xe-O 11
  Should only be flagged at inflection points (../pair_table.cpp:461)
pair_coeff                  2 3 table CRG_gas_potentials.lmptab Xe-Th 11
  Should only be flagged at inflection points (../pair_table.cpp:461)
neighbor                    2.0  bin
neigh_modify                every  1  delay  0  check  yes

dump               1   all  custom  10000 dump_relax.atom.* id type q x y z
dump_modify        1   element  O Th Xe

min_style          cg
minimize           1.0e-30 1.0e-30 10000 10000
PPPM initialization ...
  G vector (1/distance) = 0.2991198
  grid = 40 240 40
  stencil order = 5
  estimated absolute RMS force accuracy = 0.00015367046
  estimated relative force accuracy = 1.0671823e-05
  3d grid and FFT values/proc = 18225 7600
  update every 1 steps, delay 0 steps, check yes
Step Temp E_pair E_mol TotEng Press
0            0    -229539.8            0    -229539.8    27938.111
Loop time of 5.22509 on 52 procs for 320 steps with 17664 atoms

Minimization stats:
  Stopping criterion = linesearch alpha is zero
  Energy initial, next-to-last, final =
  Force two-norm initial, final = 4218.2546 0.026912462
  Force max component initial, final = 2902.1277 0.0036618714
  Final line search alpha, max atom move = 1.5258789e-05 5.5875723e-08
  Iterations, force evaluations = 320 649

reset_atom_ids
PPPM initialization ...
  G vector (1/distance) = 0.2991198
  grid = 40 240 40
  stencil order = 5
  estimated absolute RMS force accuracy = 0.00015367046
  estimated relative force accuracy = 1.0671823e-05
  3d grid and FFT values/proc = 18225 7600
  update every 1 steps, delay 0 steps, check yes
Finding 1-2 1-3 1-4 neighbors ...
     0 = max # of 1-2 neighbors
     0 = max # of 1-3 neighbors
     0 = max # of 1-4 neighbors
     1 = max # of special neighbors
variable           T     equal   600
velocity           all   create  $T  4111 dist gaussian mom yes rot yes
velocity           all   create  600  4111 dist gaussian mom yes rot yes
fix                nvt   all     nvt   temp  $T  $T  0.1
fix                nvt   all     nvt   temp  600  $T  0.1
fix                nvt   all     nvt   temp  600  600  0.1
run                10000
PPPM initialization ...
  G vector (1/distance) = 0.2991198
  grid = 40 240 40
  stencil order = 5
  estimated absolute RMS force accuracy = 0.00015367046
  estimated relative force accuracy = 1.0671823e-05
  3d grid and FFT values/proc = 18225 7600
  update every 1 steps, delay 0 steps, check yes
Step Temp E_pair E_mol TotEng Press
320          600   -231866.83            0   -230496.96    5389.5027
Loop time of 71.3703 on 52 procs for 10000 steps with 17664 atoms

unfix              nvt
write_data         Xe_relaxed.dat
System init for write_data ...
PPPM initialization ...
  G vector (1/distance) = 0.2991198
  grid = 40 240 40
  stencil order = 5
  estimated absolute RMS force accuracy = 0.00015367046
  estimated relative force accuracy = 1.0671823e-05
  3d grid and FFT values/proc = 18225 7600
  update every 1 steps, delay 0 steps, check yes
next               n
variable           tot    equal   17640+(7*4)
shell              add_Xe.sh 17668
jump               random_vac.in   loop
clear
units                        metal
dimension                        3
boundary                     p p p
atom_style                   full
atom_modify                  map array

read_data                    add_Xe.dat
Reading data file ...
  orthogonal box = (-0.27717828 -3.4472206 -0.27717828) to (27.617178 331.52722 27.617178)
  reading atoms ...
  17668 atoms
Finding 1-2 1-3 1-4 neighbors ...
     0 = max # of 1-2 neighbors
     0 = max # of 1-3 neighbors
     0 = max # of 1-4 neighbors
     1 = max # of special neighbors

# randomly create vacancies in the relaxed perfect crystal
set                         type    1      charge   -1.1104
Setting atom values ...
  11760 settings made for charge
set                         type    2      charge    2.2208
Setting atom values ...
  5880 settings made for charge
set                         type    3      charge    0.0
Setting atom values ...
  28 settings made for charge
kspace_style                pppm     1.0e-05
pair_style                  hybrid/overlay  coul/long   11.0  eam/alloy  table  linear  100000  pppm
pair_coeff                  * * coul/long
pair_coeff                  * * eam/alloy CeThUNpPuAmCmO.eam.alloy O Th NULL
pair_coeff                  3 3 table CRG_gas_potentials.lmptab Xe-Xe 11
  Should only be flagged at inflection points (../pair_table.cpp:461)
pair_coeff                  1 3 table CRG_gas_potentials.lmptab Xe-O 11
  Should only be flagged at inflection points (../pair_table.cpp:461)
pair_coeff                  2 3 table CRG_gas_potentials.lmptab Xe-Th 11
  Should only be flagged at inflection points (../pair_table.cpp:461)
neighbor                    2.0  bin
neigh_modify                every  1  delay  0  check  yes

dump               1   all  custom  10000 dump_relax.atom.* id type q x y z
dump_modify        1   element  O Th Xe

min_style          cg
minimize           1.0e-30 1.0e-30 10000 10000
PPPM initialization ...
  G vector (1/distance) = 0.29911949
  grid = 40 240 40
  stencil order = 5
  estimated absolute RMS force accuracy = 0.00015365435
  estimated relative force accuracy = 1.0670704e-05
  3d grid and FFT values/proc = 18225 7600
  update every 1 steps, delay 0 steps, check yes
Step Temp E_pair E_mol TotEng Press
0            0   -229108.32            0   -229108.32    31933.562
Loop time of 5.70319 on 52 procs for 327 steps with 17668 atoms

Minimization stats:
  Stopping criterion = linesearch alpha is zero
  Energy initial, next-to-last, final =
  Force two-norm initial, final = 5111.5854 0.032053205
  Force max component initial, final = 3189.5183 0.0053860697
  Final line search alpha, max atom move = 7.6293945e-06 4.1092450e-08
  Iterations, force evaluations = 327 700

reset_atom_ids
PPPM initialization ...
  G vector (1/distance) = 0.29911949
  grid = 40 240 40
  stencil order = 5
  estimated absolute RMS force accuracy = 0.00015365435
  estimated relative force accuracy = 1.0670704e-05
  3d grid and FFT values/proc = 18225 7600
  update every 1 steps, delay 0 steps, check yes
Finding 1-2 1-3 1-4 neighbors ...
     0 = max # of 1-2 neighbors
     0 = max # of 1-3 neighbors
     0 = max # of 1-4 neighbors
     1 = max # of special neighbors
variable           T     equal   600
velocity           all   create  $T  4111 dist gaussian mom yes rot yes
velocity           all   create  600  4111 dist gaussian mom yes rot yes
fix                nvt   all     nvt   temp  $T  $T  0.1
fix                nvt   all     nvt   temp  600  $T  0.1
fix                nvt   all     nvt   temp  600  600  0.1
run                10000
PPPM initialization ...
  G vector (1/distance) = 0.29911949
  grid = 40 240 40
  stencil order = 5
  estimated absolute RMS force accuracy = 0.00015365435
  estimated relative force accuracy = 1.0670704e-05
  3d grid and FFT values/proc = 18225 7600
  update every 1 steps, delay 0 steps, check yes
Step Temp E_pair E_mol TotEng Press
327          600   -231867.69            0    -230497.5    5413.6553
Loop time of 71.6092 on 52 procs for 10000 steps with 17668 atoms

unfix              nvt
write_data         Xe_relaxed.dat
System init for write_data ...
PPPM initialization ...
  G vector (1/distance) = 0.29911949
  grid = 40 240 40
  stencil order = 5
  estimated absolute RMS force accuracy = 0.00015365435
  estimated relative force accuracy = 1.0670704e-05
  3d grid and FFT values/proc = 18225 7600
  update every 1 steps, delay 0 steps, check yes
next               n
variable           tot    equal   17640+(8*4)
shell              add_Xe.sh 17672
jump               random_vac.in   loop
clear
units                        metal
dimension                        3
boundary                     p p p
atom_style                   full
atom_modify                  map array

read_data                    add_Xe.dat
Reading data file ...
  orthogonal box = (-0.27717828 -3.4472206 -0.27717828) to (27.617178 331.52722 27.617178)
  reading atoms ...
  17672 atoms
Finding 1-2 1-3 1-4 neighbors ...
     0 = max # of 1-2 neighbors
     0 = max # of 1-3 neighbors
     0 = max # of 1-4 neighbors
     1 = max # of special neighbors

# randomly create vacancies in the relaxed perfect crystal
set                         type    1      charge   -1.1104
Setting atom values ...
  11760 settings made for charge
set                         type    2      charge    2.2208
Setting atom values ...
  5880 settings made for charge
set                         type    3      charge    0.0
Setting atom values ...
  32 settings made for charge
kspace_style                pppm     1.0e-05
pair_style                  hybrid/overlay  coul/long   11.0  eam/alloy  table  linear  100000  pppm
pair_coeff                  * * coul/long
pair_coeff                  * * eam/alloy CeThUNpPuAmCmO.eam.alloy O Th NULL
pair_coeff                  3 3 table CRG_gas_potentials.lmptab Xe-Xe 11
  Should only be flagged at inflection points (../pair_table.cpp:461)
pair_coeff                  1 3 table CRG_gas_potentials.lmptab Xe-O 11
  Should only be flagged at inflection points (../pair_table.cpp:461)
pair_coeff                  2 3 table CRG_gas_potentials.lmptab Xe-Th 11
  Should only be flagged at inflection points (../pair_table.cpp:461)
neighbor                    2.0  bin
neigh_modify                every  1  delay  0  check  yes

dump               1   all  custom  10000 dump_relax.atom.* id type q x y z
dump_modify        1   element  O Th Xe

min_style          cg
minimize           1.0e-30 1.0e-30 10000 10000
PPPM initialization ...
  G vector (1/distance) = 0.29911918
  grid = 40 240 40
  stencil order = 5
  estimated absolute RMS force accuracy = 0.00015363825
  estimated relative force accuracy = 1.0669586e-05
  3d grid and FFT values/proc = 18225 7600
  update every 1 steps, delay 0 steps, check yes
Step Temp E_pair E_mol TotEng Press
0            0   -229890.79            0   -229890.79    26556.225
Loop time of 5.92024 on 52 procs for 299 steps with 17672 atoms

Minimization stats:
  Stopping criterion = linesearch alpha is zero
  Energy initial, next-to-last, final =
  Force two-norm initial, final = 2550.2431 0.017429611
  Force max component initial, final = 1685.4087 0.0013097246
  Final line search alpha, max atom move = 3.0517578e-05 3.9969622e-08
  Iterations, force evaluations = 299 737

reset_atom_ids
PPPM initialization ...
  G vector (1/distance) = 0.29911918
  grid = 40 240 40
  stencil order = 5
  estimated absolute RMS force accuracy = 0.00015363825
  estimated relative force accuracy = 1.0669586e-05
  3d grid and FFT values/proc = 18225 7600
  update every 1 steps, delay 0 steps, check yes
Finding 1-2 1-3 1-4 neighbors ...
     0 = max # of 1-2 neighbors
     0 = max # of 1-3 neighbors
     0 = max # of 1-4 neighbors
     1 = max # of special neighbors
variable           T     equal   600
velocity           all   create  $T  4111 dist gaussian mom yes rot yes
velocity           all   create  600  4111 dist gaussian mom yes rot yes
fix                nvt   all     nvt   temp  $T  $T  0.1
fix                nvt   all     nvt   temp  600  $T  0.1
fix                nvt   all     nvt   temp  600  600  0.1
run                10000
PPPM initialization ...
  G vector (1/distance) = 0.29911918
  grid = 40 240 40
  stencil order = 5
  estimated absolute RMS force accuracy = 0.00015363825
  estimated relative force accuracy = 1.0669586e-05
  3d grid and FFT values/proc = 18225 7600
  update every 1 steps, delay 0 steps, check yes
Step Temp E_pair E_mol TotEng Press
299          600   -231867.49            0      -230497    5466.8315
Loop time of 71.4362 on 52 procs for 10000 steps with 17672 atoms

unfix              nvt
write_data         Xe_relaxed.dat
System init for write_data ...
PPPM initialization ...
  G vector (1/distance) = 0.29911918
  grid = 40 240 40
  stencil order = 5
  estimated absolute RMS force accuracy = 0.00015363825
  estimated relative force accuracy = 1.0669586e-05
  3d grid and FFT values/proc = 18225 7600
  update every 1 steps, delay 0 steps, check yes
next               n
variable           tot    equal   17640+(9*4)
shell              add_Xe.sh 17676
jump               random_vac.in   loop
clear
units                        metal
dimension                        3
boundary                     p p p
atom_style                   full
atom_modify                  map array

read_data                    add_Xe.dat
Reading data file ...
  orthogonal box = (-0.27717828 -3.4472206 -0.27717828) to (27.617178 331.52722 27.617178)
  reading atoms ...
  17676 atoms
Finding 1-2 1-3 1-4 neighbors ...
     0 = max # of 1-2 neighbors
     0 = max # of 1-3 neighbors
     0 = max # of 1-4 neighbors
     1 = max # of special neighbors

# randomly create vacancies in the relaxed perfect crystal
set                         type    1      charge   -1.1104
Setting atom values ...
  11760 settings made for charge
set                         type    2      charge    2.2208
Setting atom values ...
  5880 settings made for charge
set                         type    3      charge    0.0
Setting atom values ...
  36 settings made for charge
kspace_style                pppm     1.0e-05
pair_style                  hybrid/overlay  coul/long   11.0  eam/alloy  table  linear  100000  pppm
pair_coeff                  * * coul/long
pair_coeff                  * * eam/alloy CeThUNpPuAmCmO.eam.alloy O Th NULL
pair_coeff                  3 3 table CRG_gas_potentials.lmptab Xe-Xe 11
  Should only be flagged at inflection points (../pair_table.cpp:461)
pair_coeff                  1 3 table CRG_gas_potentials.lmptab Xe-O 11
  Should only be flagged at inflection points (../pair_table.cpp:461)
pair_coeff                  2 3 table CRG_gas_potentials.lmptab Xe-Th 11
  Should only be flagged at inflection points (../pair_table.cpp:461)
neighbor                    2.0  bin
neigh_modify                every  1  delay  0  check  yes

dump               1   all  custom  10000 dump_relax.atom.* id type q x y z
dump_modify        1   element  O Th Xe

min_style          cg
minimize           1.0e-30 1.0e-30 10000 10000
PPPM initialization ...
  G vector (1/distance) = 0.29911887
  grid = 40 240 40
  stencil order = 5
  estimated absolute RMS force accuracy = 0.00015362215
  estimated relative force accuracy = 1.0668468e-05
  3d grid and FFT values/proc = 18225 7600
  update every 1 steps, delay 0 steps, check yes
Step Temp E_pair E_mol TotEng Press
0            0   -230404.49            0   -230404.49     22821.01
Loop time of 6.44357 on 52 procs for 338 steps with 17676 atoms

Minimization stats:
  Stopping criterion = linesearch alpha is zero
  Energy initial, next-to-last, final =
  Force two-norm initial, final = 278.38801 0.025974359
  Force max component initial, final = 89.581957 0.0027966117
  Final line search alpha, max atom move = 1.5258789e-05 4.2672908e-08
  Iterations, force evaluations = 338 803

reset_atom_ids
PPPM initialization ...
  G vector (1/distance) = 0.29911887
  grid = 40 240 40
  stencil order = 5
  estimated absolute RMS force accuracy = 0.00015362215
  estimated relative force accuracy = 1.0668468e-05
  3d grid and FFT values/proc = 18225 7600
  update every 1 steps, delay 0 steps, check yes
Finding 1-2 1-3 1-4 neighbors ...
     0 = max # of 1-2 neighbors
     0 = max # of 1-3 neighbors
     0 = max # of 1-4 neighbors
     1 = max # of special neighbors
variable           T     equal   600
velocity           all   create  $T  4111 dist gaussian mom yes rot yes
velocity           all   create  600  4111 dist gaussian mom yes rot yes
fix                nvt   all     nvt   temp  $T  $T  0.1
fix                nvt   all     nvt   temp  600  $T  0.1
fix                nvt   all     nvt   temp  600  600  0.1
run                10000
PPPM initialization ...
  G vector (1/distance) = 0.29911887
  grid = 40 240 40
  stencil order = 5
  estimated absolute RMS force accuracy = 0.00015362215
  estimated relative force accuracy = 1.0668468e-05
  3d grid and FFT values/proc = 18225 7600
  update every 1 steps, delay 0 steps, check yes
Step Temp E_pair E_mol TotEng Press
338          600   -231867.68            0   -230496.87    5535.7539
Loop time of 71.2636 on 52 procs for 10000 steps with 17676 atoms

unfix              nvt
write_data         Xe_relaxed.dat
System init for write_data ...
PPPM initialization ...
  G vector (1/distance) = 0.29911887
  grid = 40 240 40
  stencil order = 5
  estimated absolute RMS force accuracy = 0.00015362215
  estimated relative force accuracy = 1.0668468e-05
  3d grid and FFT values/proc = 18225 7600
  update every 1 steps, delay 0 steps, check yes
next               n
variable           tot    equal   17640+(10*4)
shell              add_Xe.sh 17680
jump               random_vac.in   loop
clear
units                        metal
dimension                        3
boundary                     p p p
atom_style                   full
atom_modify                  map array

read_data                    add_Xe.dat
Reading data file ...
  orthogonal box = (-0.27717828 -3.4472206 -0.27717828) to (27.617178 331.52722 27.617178)
  reading atoms ...
  17680 atoms
Finding 1-2 1-3 1-4 neighbors ...
     0 = max # of 1-2 neighbors
     0 = max # of 1-3 neighbors
     0 = max # of 1-4 neighbors
     1 = max # of special neighbors

# randomly create vacancies in the relaxed perfect crystal
set                         type    1      charge   -1.1104
Setting atom values ...
  11760 settings made for charge
set                         type    2      charge    2.2208
Setting atom values ...
  5880 settings made for charge
set                         type    3      charge    0.0
Setting atom values ...
  40 settings made for charge
kspace_style                pppm     1.0e-05
pair_style                  hybrid/overlay  coul/long   11.0  eam/alloy  table  linear  100000  pppm
pair_coeff                  * * coul/long
pair_coeff                  * * eam/alloy CeThUNpPuAmCmO.eam.alloy O Th NULL
pair_coeff                  3 3 table CRG_gas_potentials.lmptab Xe-Xe 11
  Should only be flagged at inflection points (../pair_table.cpp:461)
pair_coeff                  1 3 table CRG_gas_potentials.lmptab Xe-O 11
  Should only be flagged at inflection points (../pair_table.cpp:461)
pair_coeff                  2 3 table CRG_gas_potentials.lmptab Xe-Th 11
  Should only be flagged at inflection points (../pair_table.cpp:461)
neighbor                    2.0  bin
neigh_modify                every  1  delay  0  check  yes

dump               1   all  custom  10000 dump_relax.atom.* id type q x y z
dump_modify        1   element  O Th Xe

min_style          cg
minimize           1.0e-30 1.0e-30 10000 10000
PPPM initialization ...
  G vector (1/distance) = 0.29911856
  grid = 40 240 40
  stencil order = 5
  estimated absolute RMS force accuracy = 0.00015360606
  estimated relative force accuracy = 1.066735e-05
  3d grid and FFT values/proc = 18225 7600
  update every 1 steps, delay 0 steps, check yes
Step Temp E_pair E_mol TotEng Press
0            0   -230236.71            0   -230236.71    24652.373
Loop time of 6.72065 on 52 procs for 385 steps with 17680 atoms

Minimization stats:
  Stopping criterion = linesearch alpha is zero
  Energy initial, next-to-last, final =
  Force two-norm initial, final = 749.81156 0.028313709
  Force max component initial, final = 428.51922 0.0044144972
  Final line search alpha, max atom move = 1.5258789e-05 6.7359881e-08
  Iterations, force evaluations = 385 841

reset_atom_ids
PPPM initialization ...
  G vector (1/distance) = 0.29911856
  grid = 40 240 40
  stencil order = 5
  estimated absolute RMS force accuracy = 0.00015360606
  estimated relative force accuracy = 1.066735e-05
  3d grid and FFT values/proc = 18225 7600
  update every 1 steps, delay 0 steps, check yes
Finding 1-2 1-3 1-4 neighbors ...
     0 = max # of 1-2 neighbors
     0 = max # of 1-3 neighbors
     0 = max # of 1-4 neighbors
     1 = max # of special neighbors
variable           T     equal   600
velocity           all   create  $T  4111 dist gaussian mom yes rot yes
velocity           all   create  600  4111 dist gaussian mom yes rot yes
fix                nvt   all     nvt   temp  $T  $T  0.1
fix                nvt   all     nvt   temp  600  $T  0.1
fix                nvt   all     nvt   temp  600  600  0.1
run                10000
PPPM initialization ...
  G vector (1/distance) = 0.29911856
  grid = 40 240 40
  stencil order = 5
  estimated absolute RMS force accuracy = 0.00015360606
  estimated relative force accuracy = 1.066735e-05
  3d grid and FFT values/proc = 18225 7600
  update every 1 steps, delay 0 steps, check yes
Step Temp E_pair E_mol TotEng Press
385          600   -231867.14            0   -230496.03    5648.2271
Loop time of 71.3084 on 52 procs for 10000 steps with 17680 atoms

unfix              nvt
write_data         Xe_relaxed.dat
System init for write_data ...
PPPM initialization ...
  G vector (1/distance) = 0.29911856
  grid = 40 240 40
  stencil order = 5
  estimated absolute RMS force accuracy = 0.00015360606
  estimated relative force accuracy = 1.066735e-05
  3d grid and FFT values/proc = 18225 7600
  update every 1 steps, delay 0 steps, check yes
next               n
variable           tot    equal   17640+(11*4)
shell              add_Xe.sh 17684
jump               random_vac.in   loop
clear
units                        metal
dimension                        3
boundary                     p p p
atom_style                   full
atom_modify                  map array

read_data                    add_Xe.dat
Reading data file ...
  orthogonal box = (-0.27717828 -3.4472206 -0.27717828) to (27.617178 331.52722 27.617178)
  reading atoms ...
  17684 atoms
Finding 1-2 1-3 1-4 neighbors ...
     0 = max # of 1-2 neighbors
     0 = max # of 1-3 neighbors
     0 = max # of 1-4 neighbors
     1 = max # of special neighbors

# randomly create vacancies in the relaxed perfect crystal
set                         type    1      charge   -1.1104
Setting atom values ...
  11760 settings made for charge
set                         type    2      charge    2.2208
Setting atom values ...
  5880 settings made for charge
set                         type    3      charge    0.0
Setting atom values ...
  44 settings made for charge
kspace_style                pppm     1.0e-05
pair_style                  hybrid/overlay  coul/long   11.0  eam/alloy  table  linear  100000  pppm
pair_coeff                  * * coul/long
pair_coeff                  * * eam/alloy CeThUNpPuAmCmO.eam.alloy O Th NULL
pair_coeff                  3 3 table CRG_gas_potentials.lmptab Xe-Xe 11
  Should only be flagged at inflection points (../pair_table.cpp:461)
pair_coeff                  1 3 table CRG_gas_potentials.lmptab Xe-O 11
  Should only be flagged at inflection points (../pair_table.cpp:461)
pair_coeff                  2 3 table CRG_gas_potentials.lmptab Xe-Th 11
  Should only be flagged at inflection points (../pair_table.cpp:461)
neighbor                    2.0  bin
neigh_modify                every  1  delay  0  check  yes

dump               1   all  custom  10000 dump_relax.atom.* id type q x y z
dump_modify        1   element  O Th Xe

min_style          cg
minimize           1.0e-30 1.0e-30 10000 10000
PPPM initialization ...
  G vector (1/distance) = 0.29911826
  grid = 40 240 40
  stencil order = 5
  estimated absolute RMS force accuracy = 0.00015358997
  estimated relative force accuracy = 1.0666233e-05
  3d grid and FFT values/proc = 18225 7600
  update every 1 steps, delay 0 steps, check yes
Step Temp E_pair E_mol TotEng Press
0            0   -229723.03            0   -229723.03    28085.991
Loop time of 5.19359 on 52 procs for 312 steps with 17684 atoms

Minimization stats:
  Stopping criterion = linesearch alpha is zero
  Energy initial, next-to-last, final =
  Force two-norm initial, final = 3026.7610 0.041208037
  Force max component initial, final = 1704.1679 0.013328876
  Final line search alpha, max atom move = 3.8146973e-06 5.0845627e-08
  Iterations, force evaluations = 312 643

reset_atom_ids
PPPM initialization ...
  G vector (1/distance) = 0.29911826
  grid = 40 240 40
  stencil order = 5
  estimated absolute RMS force accuracy = 0.00015358997
  estimated relative force accuracy = 1.0666233e-05
  3d grid and FFT values/proc = 18225 7600
  update every 1 steps, delay 0 steps, check yes
Finding 1-2 1-3 1-4 neighbors ...
     0 = max # of 1-2 neighbors
     0 = max # of 1-3 neighbors
     0 = max # of 1-4 neighbors
     1 = max # of special neighbors
variable           T     equal   600
velocity           all   create  $T  4111 dist gaussian mom yes rot yes
velocity           all   create  600  4111 dist gaussian mom yes rot yes
fix                nvt   all     nvt   temp  $T  $T  0.1
fix                nvt   all     nvt   temp  600  $T  0.1
fix                nvt   all     nvt   temp  600  600  0.1
run                10000
PPPM initialization ...
  G vector (1/distance) = 0.29911826
  grid = 40 240 40
  stencil order = 5
  estimated absolute RMS force accuracy = 0.00015358997
  estimated relative force accuracy = 1.0666233e-05
  3d grid and FFT values/proc = 18225 7600
  update every 1 steps, delay 0 steps, check yes
Step Temp E_pair E_mol TotEng Press
312          600   -231866.87            0   -230495.44    5798.0009
Loop time of 71.7915 on 52 procs for 10000 steps with 17684 atoms

unfix              nvt
write_data         Xe_relaxed.dat
System init for write_data ...
PPPM initialization ...
  G vector (1/distance) = 0.29911826
  grid = 40 240 40
  stencil order = 5
  estimated absolute RMS force accuracy = 0.00015358997
  estimated relative force accuracy = 1.0666233e-05
  3d grid and FFT values/proc = 18225 7600
  update every 1 steps, delay 0 steps, check yes
next               n
variable           tot    equal   17640+(12*4)
shell              add_Xe.sh 17688
jump               random_vac.in   loop
clear
units                        metal
dimension                        3
boundary                     p p p
atom_style                   full
atom_modify                  map array

read_data                    add_Xe.dat
Reading data file ...
  orthogonal box = (-0.27717828 -3.4472206 -0.27717828) to (27.617178 331.52722 27.617178)
  reading atoms ...
  17688 atoms
Finding 1-2 1-3 1-4 neighbors ...
     0 = max # of 1-2 neighbors
     0 = max # of 1-3 neighbors
     0 = max # of 1-4 neighbors
     1 = max # of special neighbors

# randomly create vacancies in the relaxed perfect crystal
set                         type    1      charge   -1.1104
Setting atom values ...
  11760 settings made for charge
set                         type    2      charge    2.2208
Setting atom values ...
  5880 settings made for charge
set                         type    3      charge    0.0
Setting atom values ...
  48 settings made for charge
kspace_style                pppm     1.0e-05
pair_style                  hybrid/overlay  coul/long   11.0  eam/alloy  table  linear  100000  pppm
pair_coeff                  * * coul/long
pair_coeff                  * * eam/alloy CeThUNpPuAmCmO.eam.alloy O Th NULL
pair_coeff                  3 3 table CRG_gas_potentials.lmptab Xe-Xe 11
  Should only be flagged at inflection points (../pair_table.cpp:461)
pair_coeff                  1 3 table CRG_gas_potentials.lmptab Xe-O 11
  Should only be flagged at inflection points (../pair_table.cpp:461)
pair_coeff                  2 3 table CRG_gas_potentials.lmptab Xe-Th 11
  Should only be flagged at inflection points (../pair_table.cpp:461)
neighbor                    2.0  bin
neigh_modify                every  1  delay  0  check  yes

dump               1   all  custom  10000 dump_relax.atom.* id type q x y z
dump_modify        1   element  O Th Xe

min_style          cg
minimize           1.0e-30 1.0e-30 10000 10000
PPPM initialization ...
  G vector (1/distance) = 0.29911795
  grid = 40 240 40
  stencil order = 5
  estimated absolute RMS force accuracy = 0.00015357389
  estimated relative force accuracy = 1.0665116e-05
  3d grid and FFT values/proc = 18225 7600
  update every 1 steps, delay 0 steps, check yes
Step Temp E_pair E_mol TotEng Press
0            0   -228157.16            0   -228157.16    36196.891
Loop time of 5.69349 on 52 procs for 316 steps with 17688 atoms

Minimization stats:
  Stopping criterion = linesearch alpha is zero
  Energy initial, next-to-last, final =
  Force two-norm initial, final = 9334.7919 0.021247611
  Force max component initial, final = 5930.0469 0.0022658083
  Final line search alpha, max atom move = 1.5258789e-05 3.4573491e-08
  Iterations, force evaluations = 316 707

reset_atom_ids
PPPM initialization ...
  G vector (1/distance) = 0.29911795
  grid = 40 240 40
  stencil order = 5
  estimated absolute RMS force accuracy = 0.00015357389
  estimated relative force accuracy = 1.0665116e-05
  3d grid and FFT values/proc = 18225 7600
  update every 1 steps, delay 0 steps, check yes
Finding 1-2 1-3 1-4 neighbors ...
     0 = max # of 1-2 neighbors
     0 = max # of 1-3 neighbors
     0 = max # of 1-4 neighbors
     1 = max # of special neighbors
variable           T     equal   600
velocity           all   create  $T  4111 dist gaussian mom yes rot yes
velocity           all   create  600  4111 dist gaussian mom yes rot yes
fix                nvt   all     nvt   temp  $T  $T  0.1
fix                nvt   all     nvt   temp  600  $T  0.1
fix                nvt   all     nvt   temp  600  600  0.1
run                10000
PPPM initialization ...
  G vector (1/distance) = 0.29911795
  grid = 40 240 40
  stencil order = 5
  estimated absolute RMS force accuracy = 0.00015357389
  estimated relative force accuracy = 1.0665116e-05
  3d grid and FFT values/proc = 18225 7600
  update every 1 steps, delay 0 steps, check yes
Step Temp E_pair E_mol TotEng Press
316          600   -231866.62            0   -230494.88    5956.5446
Loop time of 71.6856 on 52 procs for 10000 steps with 17688 atoms

unfix              nvt
write_data         Xe_relaxed.dat
System init for write_data ...
PPPM initialization ...
  G vector (1/distance) = 0.29911795
  grid = 40 240 40
  stencil order = 5
  estimated absolute RMS force accuracy = 0.00015357389
  estimated relative force accuracy = 1.0665116e-05
  3d grid and FFT values/proc = 18225 7600
  update every 1 steps, delay 0 steps, check yes
next               n
variable           tot    equal   17640+(13*4)
shell              add_Xe.sh 17692
jump               random_vac.in   loop
clear
units                        metal
dimension                        3
boundary                     p p p
atom_style                   full
atom_modify                  map array

read_data                    add_Xe.dat
Reading data file ...
  orthogonal box = (-0.27717828 -3.4472206 -0.27717828) to (27.617178 331.52722 27.617178)
  reading atoms ...
  17692 atoms
Finding 1-2 1-3 1-4 neighbors ...
     0 = max # of 1-2 neighbors
     0 = max # of 1-3 neighbors
     0 = max # of 1-4 neighbors
     1 = max # of special neighbors

# randomly create vacancies in the relaxed perfect crystal
set                         type    1      charge   -1.1104
Setting atom values ...
  11760 settings made for charge
set                         type    2      charge    2.2208
Setting atom values ...
  5880 settings made for charge
set                         type    3      charge    0.0
Setting atom values ...
  52 settings made for charge
kspace_style                pppm     1.0e-05
pair_style                  hybrid/overlay  coul/long   11.0  eam/alloy  table  linear  100000  pppm
pair_coeff                  * * coul/long
pair_coeff                  * * eam/alloy CeThUNpPuAmCmO.eam.alloy O Th NULL
pair_coeff                  3 3 table CRG_gas_potentials.lmptab Xe-Xe 11
  Should only be flagged at inflection points (../pair_table.cpp:461)
pair_coeff                  1 3 table CRG_gas_potentials.lmptab Xe-O 11
  Should only be flagged at inflection points (../pair_table.cpp:461)
pair_coeff                  2 3 table CRG_gas_potentials.lmptab Xe-Th 11
  Should only be flagged at inflection points (../pair_table.cpp:461)
neighbor                    2.0  bin
neigh_modify                every  1  delay  0  check  yes

dump               1   all  custom  10000 dump_relax.atom.* id type q x y z
dump_modify        1   element  O Th Xe

min_style          cg
minimize           1.0e-30 1.0e-30 10000 10000
PPPM initialization ...
  G vector (1/distance) = 0.29911764
  grid = 40 240 40
  stencil order = 5
  estimated absolute RMS force accuracy = 0.00015355782
  estimated relative force accuracy = 1.0664e-05
  3d grid and FFT values/proc = 18225 7600
  update every 1 steps, delay 0 steps, check yes
Step Temp E_pair E_mol TotEng Press
0            0   -223140.55            0   -223140.55    45160.121
Loop time of 5.11079 on 52 procs for 310 steps with 17692 atoms

Minimization stats:
  Stopping criterion = linesearch alpha is zero
  Energy initial, next-to-last, final =
  Force two-norm initial, final = 31518.497 0.045085781
  Force max component initial, final = 19028.772 0.0040458605
  Final line search alpha, max atom move = 3.8146973e-06 1.5433733e-08
  Iterations, force evaluations = 310 630

reset_atom_ids
PPPM initialization ...
  G vector (1/distance) = 0.29911764
  grid = 40 240 40
  stencil order = 5
  estimated absolute RMS force accuracy = 0.00015355782
  estimated relative force accuracy = 1.0664e-05
  3d grid and FFT values/proc = 18225 7600
  update every 1 steps, delay 0 steps, check yes
Finding 1-2 1-3 1-4 neighbors ...
     0 = max # of 1-2 neighbors
     0 = max # of 1-3 neighbors
     0 = max # of 1-4 neighbors
     1 = max # of special neighbors
variable           T     equal   600
velocity           all   create  $T  4111 dist gaussian mom yes rot yes
velocity           all   create  600  4111 dist gaussian mom yes rot yes
fix                nvt   all     nvt   temp  $T  $T  0.1
fix                nvt   all     nvt   temp  600  $T  0.1
fix                nvt   all     nvt   temp  600  600  0.1
run                10000
PPPM initialization ...
  G vector (1/distance) = 0.29911764
  grid = 40 240 40
  stencil order = 5
  estimated absolute RMS force accuracy = 0.00015355782
  estimated relative force accuracy = 1.0664e-05
  3d grid and FFT values/proc = 18225 7600
  update every 1 steps, delay 0 steps, check yes
Step Temp E_pair E_mol TotEng Press
310          600    -231866.6            0   -230494.56    6115.2989
Loop time of 71.5744 on 52 procs for 10000 steps with 17692 atoms

unfix              nvt
write_data         Xe_relaxed.dat
System init for write_data ...
PPPM initialization ...
  G vector (1/distance) = 0.29911764
  grid = 40 240 40
  stencil order = 5
  estimated absolute RMS force accuracy = 0.00015355782
  estimated relative force accuracy = 1.0664e-05
  3d grid and FFT values/proc = 18225 7600
  update every 1 steps, delay 0 steps, check yes
next               n
variable           tot    equal   17640+(14*4)
shell              add_Xe.sh 17696
jump               random_vac.in   loop
clear
units                        metal
dimension                        3
boundary                     p p p
atom_style                   full
atom_modify                  map array

read_data                    add_Xe.dat
Reading data file ...
  orthogonal box = (-0.27717828 -3.4472206 -0.27717828) to (27.617178 331.52722 27.617178)
  reading atoms ...
  17696 atoms
Finding 1-2 1-3 1-4 neighbors ...
     0 = max # of 1-2 neighbors
     0 = max # of 1-3 neighbors
     0 = max # of 1-4 neighbors
     1 = max # of special neighbors

# randomly create vacancies in the relaxed perfect crystal
set                         type    1      charge   -1.1104
Setting atom values ...
  11760 settings made for charge
set                         type    2      charge    2.2208
Setting atom values ...
  5880 settings made for charge
set                         type    3      charge    0.0
Setting atom values ...
  56 settings made for charge
kspace_style                pppm     1.0e-05
pair_style                  hybrid/overlay  coul/long   11.0  eam/alloy  table  linear  100000  pppm
pair_coeff                  * * coul/long
pair_coeff                  * * eam/alloy CeThUNpPuAmCmO.eam.alloy O Th NULL
pair_coeff                  3 3 table CRG_gas_potentials.lmptab Xe-Xe 11
  Should only be flagged at inflection points (../pair_table.cpp:461)
pair_coeff                  1 3 table CRG_gas_potentials.lmptab Xe-O 11
  Should only be flagged at inflection points (../pair_table.cpp:461)
pair_coeff                  2 3 table CRG_gas_potentials.lmptab Xe-Th 11
  Should only be flagged at inflection points (../pair_table.cpp:461)
neighbor                    2.0  bin
neigh_modify                every  1  delay  0  check  yes

dump               1   all  custom  10000 dump_relax.atom.* id type q x y z
dump_modify        1   element  O Th Xe

min_style          cg
minimize           1.0e-30 1.0e-30 10000 10000
PPPM initialization ...
  G vector (1/distance) = 0.29911733
  grid = 40 240 40
  stencil order = 5
  estimated absolute RMS force accuracy = 0.00015354175
  estimated relative force accuracy = 1.0662884e-05
  3d grid and FFT values/proc = 18225 7600
  update every 1 steps, delay 0 steps, check yes
Step Temp E_pair E_mol TotEng Press
0            0   -226517.27            0   -226517.27    44604.886
Loop time of 5.32962 on 52 procs for 320 steps with 17696 atoms

Minimization stats:
  Stopping criterion = linesearch alpha is zero
  Energy initial, next-to-last, final =
  Force two-norm initial, final = 12760.477 0.029307376
  Force max component initial, final = 6064.8283 0.006345858
  Final line search alpha, max atom move = 7.6293945e-06 4.8415054e-08
  Iterations, force evaluations = 320 653

reset_atom_ids
PPPM initialization ...
  G vector (1/distance) = 0.29911733
  grid = 40 240 40
  stencil order = 5
  estimated absolute RMS force accuracy = 0.00015354175
  estimated relative force accuracy = 1.0662884e-05
  3d grid and FFT values/proc = 18225 7600
  update every 1 steps, delay 0 steps, check yes
Finding 1-2 1-3 1-4 neighbors ...
     0 = max # of 1-2 neighbors
     0 = max # of 1-3 neighbors
     0 = max # of 1-4 neighbors
     1 = max # of special neighbors
variable           T     equal   600
velocity           all   create  $T  4111 dist gaussian mom yes rot yes
velocity           all   create  600  4111 dist gaussian mom yes rot yes
fix                nvt   all     nvt   temp  $T  $T  0.1
fix                nvt   all     nvt   temp  600  $T  0.1
fix                nvt   all     nvt   temp  600  600  0.1
run                10000
PPPM initialization ...
  G vector (1/distance) = 0.29911733
  grid = 40 240 40
  stencil order = 5
  estimated absolute RMS force accuracy = 0.00015354175
  estimated relative force accuracy = 1.0662884e-05
  3d grid and FFT values/proc = 18225 7600
  update every 1 steps, delay 0 steps, check yes
Step Temp E_pair E_mol TotEng Press
320          600   -231864.95            0   -230492.59    6232.9423
Loop time of 71.3665 on 52 procs for 10000 steps with 17696 atoms

unfix              nvt
write_data         Xe_relaxed.dat
System init for write_data ...
PPPM initialization ...
  G vector (1/distance) = 0.29911733
  grid = 40 240 40
  stencil order = 5
  estimated absolute RMS force accuracy = 0.00015354175
  estimated relative force accuracy = 1.0662884e-05
  3d grid and FFT values/proc = 18225 7600
  update every 1 steps, delay 0 steps, check yes
next               n
variable           tot    equal   17640+(15*4)
shell              add_Xe.sh 17700
jump               random_vac.in   loop
clear
units                        metal
dimension                        3
boundary                     p p p
atom_style                   full
atom_modify                  map array

read_data                    add_Xe.dat
Reading data file ...
  orthogonal box = (-0.27717828 -3.4472206 -0.27717828) to (27.617178 331.52722 27.617178)
  reading atoms ...
  17700 atoms
Finding 1-2 1-3 1-4 neighbors ...
     0 = max # of 1-2 neighbors
     0 = max # of 1-3 neighbors
     0 = max # of 1-4 neighbors
     1 = max # of special neighbors

# randomly create vacancies in the relaxed perfect crystal
set                         type    1      charge   -1.1104
Setting atom values ...
  11760 settings made for charge
set                         type    2      charge    2.2208
Setting atom values ...
  5880 settings made for charge
set                         type    3      charge    0.0
Setting atom values ...
  60 settings made for charge
kspace_style                pppm     1.0e-05
pair_style                  hybrid/overlay  coul/long   11.0  eam/alloy  table  linear  100000  pppm
pair_coeff                  * * coul/long
pair_coeff                  * * eam/alloy CeThUNpPuAmCmO.eam.alloy O Th NULL
pair_coeff                  3 3 table CRG_gas_potentials.lmptab Xe-Xe 11
  Should only be flagged at inflection points (../pair_table.cpp:461)
pair_coeff                  1 3 table CRG_gas_potentials.lmptab Xe-O 11
  Should only be flagged at inflection points (../pair_table.cpp:461)
pair_coeff                  2 3 table CRG_gas_potentials.lmptab Xe-Th 11
  Should only be flagged at inflection points (../pair_table.cpp:461)
neighbor                    2.0  bin
neigh_modify                every  1  delay  0  check  yes

dump               1   all  custom  10000 dump_relax.atom.* id type q x y z
dump_modify        1   element  O Th Xe

min_style          cg
minimize           1.0e-30 1.0e-30 10000 10000
PPPM initialization ...
  G vector (1/distance) = 0.29911702
  grid = 40 240 40
  stencil order = 5
  estimated absolute RMS force accuracy = 0.00015352568
  estimated relative force accuracy = 1.0661769e-05
  3d grid and FFT values/proc = 18225 7600
  update every 1 steps, delay 0 steps, check yes
Step Temp E_pair E_mol TotEng Press
0            0   -229814.11            0   -229814.11    29187.826
Loop time of 5.09975 on 52 procs for 307 steps with 17700 atoms

Minimization stats:
  Stopping criterion = linesearch alpha is zero
  Energy initial, next-to-last, final =
  Force two-norm initial, final = 1774.8276 0.036512815
  Force max component initial, final = 901.65919 0.0038811036
  Final line search alpha, max atom move = 7.6293945e-06 2.9610470e-08
  Iterations, force evaluations = 307 630

reset_atom_ids
PPPM initialization ...
  G vector (1/distance) = 0.29911702
  grid = 40 240 40
  stencil order = 5
  estimated absolute RMS force accuracy = 0.00015352568
  estimated relative force accuracy = 1.0661769e-05
  3d grid and FFT values/proc = 18225 7600
  update every 1 steps, delay 0 steps, check yes
Finding 1-2 1-3 1-4 neighbors ...
     0 = max # of 1-2 neighbors
     0 = max # of 1-3 neighbors
     0 = max # of 1-4 neighbors
     1 = max # of special neighbors
variable           T     equal   600
velocity           all   create  $T  4111 dist gaussian mom yes rot yes
velocity           all   create  600  4111 dist gaussian mom yes rot yes
fix                nvt   all     nvt   temp  $T  $T  0.1
fix                nvt   all     nvt   temp  600  $T  0.1
fix                nvt   all     nvt   temp  600  600  0.1
run                10000
PPPM initialization ...
  G vector (1/distance) = 0.29911702
  grid = 40 240 40
  stencil order = 5
  estimated absolute RMS force accuracy = 0.00015352568
  estimated relative force accuracy = 1.0661769e-05
  3d grid and FFT values/proc = 18225 7600
  update every 1 steps, delay 0 steps, check yes
Step Temp E_pair E_mol TotEng Press
307          600   -231863.16            0   -230490.49    6396.1025
Loop time of 71.7448 on 52 procs for 10000 steps with 17700 atoms
